  62
        -98.93730281
 C          2.3186863631        0.7207303058        0.0827420818
 C          3.3431000475        0.3778237548        0.9964936337
 C          4.2989197441       -0.6644657538        0.5761438009
 C          4.1325080310       -1.2447366614       -0.6270399216
 C          4.9884323057       -2.2959397143       -1.2821626285
 C          6.3022995327       -1.7261397600       -1.8405377345
 C          7.0300495221       -0.7593350945       -0.9102027034
 H          7.8818829781       -0.3488020554       -1.4588204646
 H          6.3676173791        0.0744469896       -0.6707096631
 C          7.5601582498       -1.3746246095        0.3827375231
 H          8.2465952492       -2.1880547336        0.1373916281
 H          8.1343412916       -0.6003561145        0.8980863425
 C          6.5036448856       -1.9060146613        1.3538918836
 H          7.0002062422       -2.0746370495        2.3139245112
 H          6.1224426736       -2.8710362540        1.0311260262
 C          5.3480085177       -0.9477793651        1.6244461169
 H          5.7519406531        0.0274545857        1.9193849178
 H          4.7961324165       -1.3064128621        2.5017156146
 H          6.0717201818       -1.1890561775       -2.7638700744
 H          6.9606493642       -2.5596775004       -2.0909354697
 H          5.1826825264       -3.1066413226       -0.5864342924
 H          4.4053011624       -2.7018524856       -2.1116921886
 O          3.1193184906       -0.8934693403       -1.4689264941
 C          2.1925234155        0.0816020464       -1.1498254091
 O          1.3357117337        0.2779782586       -2.0331323555
 O          3.4653295980        0.9251184025        2.1256181963
 C          1.3157456778        1.7854097155        0.4945540040
 C         -0.0175261622        1.1195202554        0.7288326718
 C         -0.2397056700        0.4572391060        1.9334275837
 C         -1.4330301116       -0.1983253319        2.1691590389
 C         -2.4271868350       -0.2164871503        1.2059675182
 C         -2.2147045670        0.4379532774        0.0006574470
 C         -1.0200511079        1.1096523607       -0.2279314524
 H         -0.8636428535        1.6031234530       -1.1742625792
 N         -3.2070326397        0.4009374955       -0.9919490458
 S         -4.7903964182        0.7582152435       -0.5773926356
 O         -5.4115181926        1.2118544419       -1.8026792818
 O         -4.8521180241        1.6636099111        0.5467176927
 C         -5.4838096016       -0.8192880090       -0.1283507114
 C         -6.0818171101       -0.9842745637        1.1055515116
 C         -6.6246719378       -2.2185205715        1.4278079750
 C         -6.5612224030       -3.2598928293        0.5147880629
 C         -5.9592050021       -3.0772165505       -0.7213884627
 C         -5.4154262336       -1.8457468723       -1.0498135174
 H         -4.9417767030       -1.6625729899       -2.0000145202
 H         -5.9113644299       -3.8893327818       -1.4289532573
 H         -6.9837215057       -4.2196260068        0.7674093104
 H         -7.0933293352       -2.3625399904        2.3880678313
 H         -6.1040033185       -0.1473923096        1.7853849664
 H         -2.9382793639        0.8504797460       -1.8547092855
 H         -3.3585123429       -0.7302546804        1.3798132771
 H         -1.5914367016       -0.7042304091        3.1094500011
 H          0.5424886936        0.4592525203        2.6798480134
 H          1.6778704671        2.1662819088        1.4592136684
 C          1.2642069994        2.9322486802       -0.4926491920
 C          0.5907050057        4.2108913410       -0.0954642571
 C          2.0819876061        4.1602471544       -0.2332583552
 H          2.5399388105        4.6606516343       -1.0733437569
 H          2.6791038965        4.1824482982        0.6664680466
 H          0.0220894902        4.7487199945       -0.8389536473
 H          0.1729567530        4.2647009223        0.8986835770
 H          1.1730776842        2.6098214378       -1.5228611575
