  62
        -98.94300648
 C         -1.9949666297       -0.1442394003       -0.2704344702
 C         -2.8419770397        0.7277300787        0.4571849008
 C         -4.1774145497        0.2026326583        0.7751065202
 C         -4.5145149297       -1.0493373113        0.4199007186
 C         -5.8255323497       -1.7313202116        0.7026178978
 C         -6.9289826697       -1.4101155704       -0.3148460418
 C         -7.5113794597        0.0006539195       -0.2193590601
 H         -8.4130497797        0.0169454902       -0.8348769200
 H         -7.8160106097        0.1975932082        0.8089765302
 C         -6.5652358697        1.1098049301       -0.7000604287
 H         -5.7643849797        0.6707387209       -1.2995807192
 H         -7.1109241898        1.7971557309       -1.3504670978
 C         -5.9441263498        1.9427673187        0.4211856024
 H         -6.7283542298        2.4921875980        0.9466278831
 H         -5.2657404398        2.6714699893       -0.0294282767
 C         -5.1485544897        1.1258928374        1.4476044913
 H         -4.5742216697        1.8189007067        2.0669092922
 H         -5.8269913397        0.5633818966        2.0883830606
 H         -7.7382781397       -2.1261966106       -0.1541916227
 H         -6.5351452097       -1.5748632791       -1.3205434020
 H         -6.1660979697       -1.4705689829        1.7051071881
 H         -5.6295700797       -2.8053103916        0.6702278964
 O         -3.6595855197       -1.8719674904       -0.2446476224
 C         -2.4028627797       -1.4344208299       -0.6243382819
 O         -1.7453453997       -2.2784351991       -1.2678363729
 O         -2.5250022598        1.8849703783        0.8374968723
 C         -0.5978150597        0.2401287903       -0.7319469898
 C          0.4211836203        0.0789656089        0.3708526200
 C          0.3304642903        0.7969077674        1.5595280309
 C          1.2807401303        0.6330517562        2.5500730607
 C          2.3488751703       -0.2285879536        2.3681939996
 C          2.4513153903       -0.9463824221        1.1834487687
 C          1.4842593003       -0.7954696609        0.1982839189
 H          1.5721101303       -1.3702328497       -0.7114930518
 N          3.5298171303       -1.8252963518        0.9598544876
 S          4.5028741003       -1.5592668501       -0.3763562320
 O          3.7375181403       -1.7241180686       -1.5846851122
 O          5.6318763503       -2.4446987303       -0.2004685931
 C          5.0323900203        0.1361418097       -0.2035330899
 C          6.2513578503        0.3954823190        0.3923553504
 C          6.6353614603        1.7118722588        0.5903549621
 C          5.7916508702        2.7417061192        0.2024076533
 C          4.5692679302        2.4647828999       -0.3903455270
 C          4.1821106503        1.1502682202       -0.5982156086
 H          3.2394287503        0.9019423607       -1.0579514789
 H          3.9114614302        3.2645766803       -0.6902266060
 H          6.0878793302        3.7666032290        0.3610182146
 H          7.5866680002        1.9299392782        1.0483365323
 H          6.8753007703       -0.4368485014        0.6754493894
 H          4.1102282803       -1.9706140028        1.7744028275
 H          3.0941282303       -0.3507315345        3.1397822695
 H          1.1946226303        1.1894666650        3.4709400414
 H         -0.4983174297        1.4731797972        1.7010636118
 H         -0.3423135097       -0.4782592787       -1.5233149807
 C         -0.5262523298        1.6375914910       -1.3179876280
 C          0.5465980802        1.9491900823       -2.3156686676
 C         -0.8822506098        1.8452338928       -2.7574678878
 H         -1.4068078498        2.7474976631       -3.0336382366
 H         -1.1765811597        0.9770052935       -3.3300045488
 H          1.0060448602        2.9253456822       -2.2930292064
 H          1.2178728403        1.1505772626       -2.5978901186
 H         -0.8102561398        2.4128485201       -0.6190372271
