  62
        -98.93983766
 C         -2.5758457619       -0.0864556081       -0.4735276818
 C         -2.2130387809       -0.7282009929        0.7339810140
 C         -1.7851096974       -2.1332838161        0.6220407646
 C         -1.7024708855       -2.7033119724       -0.5922703786
 C         -1.3045853683       -4.1150615727       -0.9450248390
 C         -0.1095392706       -4.7238274181       -0.1999093843
 C          0.9907655583       -3.7297049257        0.2015816614
 H          1.9558590133       -4.1132671522       -0.1365145324
 H          0.8403124240       -2.7649038844       -0.2890008519
 C          1.0731666986       -3.5188003305        1.7151035755
 H          0.9785388162       -4.4883581443        2.2107595188
 H          2.0589877963       -3.1149899477        1.9579277213
 C          0.0444425723       -2.5496201827        2.2960386007
 H          0.2948686921       -1.5312592564        1.9884617580
 H          0.1279407020       -2.5839416582        3.3856182699
 C         -1.4183357730       -2.8165701923        1.9082648930
 H         -1.6263686762       -3.8838501475        1.8659279323
 H         -2.0525385384       -2.3669228964        2.6776458832
 H         -0.4623971304       -5.2366736886        0.6940365417
 H          0.3133404137       -5.4872416954       -0.8552219270
 H         -2.1784204898       -4.7589384092       -0.8068968649
 H         -1.0914196511       -4.0867322126       -2.0163794091
 O         -2.0314923012       -2.0356878426       -1.7351673112
 C         -2.4681740565       -0.7244310325       -1.7069291229
 O         -2.7325359612       -0.2442175073       -2.8300285862
 H         -0.4071864786        1.0448753265       -0.9872708789
 C         -0.5716324154        1.9023305098       -0.3510832418
 C         -1.8644689521        2.2332352272        0.0318492422
 C         -2.0505352605        3.3505619729        0.8363227896
 C         -0.9632425997        4.0953082875        1.2603079218
 C          0.3253059098        3.7357329153        0.9095752020
 C          0.5207814832        2.6263955708        0.0953621152
 N          1.8132346428        2.2189907248       -0.2979123334
 S          2.1314527684        0.5627469634       -0.1238925217
 O          1.5587194160       -0.1557563400       -1.2343545362
 O          1.7394020372        0.1365719510        1.1992346218
 C          3.9090962241        0.5590364916       -0.2653206704
 C          4.6826600481        0.5086022619        0.8786670547
 C          6.0631449397        0.5358674713        0.7560378837
 C          6.6427379466        0.6154564784       -0.5012105994
 C          5.8528825162        0.6648184643       -1.6404918686
 C          4.4721716524        0.6370888184       -1.5247892831
 H          3.8170645172        0.6638839700       -2.3800896928
 H          6.3066620720        0.7238713977       -2.6166021319
 H          7.7170125674        0.6363088820       -0.5943180590
 H          6.6793622664        0.4940298068        1.6396023647
 H          4.1866592888        0.4380029965        1.8334671029
 H          2.5333758926        2.7523259946        0.1736255265
 H          1.1723573121        4.3052876261        1.2615048281
 H         -1.1212137756        4.9596206812        1.8875294268
 H         -3.0461545268        3.6331375620        1.1374622952
 C         -2.9992256224        1.3709464859       -0.4699133807
 H         -3.1802097791        1.6337887567       -1.5236624283
 C         -4.2859329016        1.5567965733        0.3073156597
 C         -5.2647747772        2.6193404571       -0.0907992685
 C         -5.5810911580        1.1767990799       -0.3432687389
 H         -6.3393791703        0.6986185072        0.2581390573
 H         -5.5340820003        0.8107384147       -1.3589363668
 H         -5.8120175499        3.1327676861        0.6853849301
 H         -5.0151216263        3.2368173212       -0.9404821185
 H         -4.1694555288        1.3315649537        1.3610074622
 O         -2.2627017980       -0.1637228823        1.8587218137
