  62
        -98.94352914
 C          1.8696305299        0.8649766054       -0.5640950358
 C          3.2067038544        1.2641014226       -0.3315985860
 C          4.2123148592        0.1979596527       -0.4045653737
 C          3.8327219374       -1.0592127884       -0.6982792529
 C          4.7439195215       -2.2486511028       -0.8369232263
 C          5.0876509610       -2.9307396839        0.4942711899
 C          6.0530557930       -2.1551406273        1.3913744895
 H          6.3750148045       -2.8369496916        2.1810980677
 H          6.9390934118       -1.8803201151        0.8181705898
 C          5.4472055956       -0.9018869755        2.0386584814
 H          5.7115448128       -0.8750244593        3.0982723546
 H          4.3572702710       -0.9543560584        1.9830852179
 C          5.9119231029        0.4180125516        1.4227985907
 H          6.9840844427        0.5427021851        1.5901013047
 H          5.3952827414        1.2350957388        1.9331889482
 C          5.6335524452        0.5469309414       -0.0806851425
 H          5.7949390826        1.5881089302       -0.3708564074
 H          6.3198979264       -0.0836098316       -0.6455460054
 H          5.5412448845       -3.8962066340        0.2585114261
 H          4.1600939627       -3.1237126215        1.0383558239
 H          5.6630189491       -1.9499267820       -1.3417676251
 H          4.2194450213       -2.9698371959       -1.4673840372
 O          2.5372349011       -1.3991745249       -0.9296947874
 C          1.5215146997       -0.4554780503       -0.8491927316
 O          0.3818835632       -0.9097108181       -1.0532997350
 O          3.5424458980        2.4517935589       -0.0747332386
 C          0.7670012830        1.9049886058       -0.4975937180
 C         -0.2662759167        1.5107034639        0.5282290427
 C          0.1587386525        1.0796750366        1.7823573977
 C         -0.7520111170        0.6969905122        2.7480017231
 C         -2.1114263957        0.7465011283        2.4915006323
 C         -2.5476533301        1.1832759740        1.2484655298
 C         -1.6285705900        1.5651855177        0.2774112385
 H         -1.9871970940        1.9023009778       -0.6827378486
 N         -3.9313427358        1.2575598327        0.9880520915
 S         -4.8450959414       -0.1444008006        1.0278750873
 O         -6.1952999033        0.2697794406        0.7220679327
 O         -4.6476145131       -0.7993081064        2.2951971860
 C         -4.2150441432       -1.1545681146       -0.3005333697
 C         -4.9636424738       -1.2916109110       -1.4530421305
 C         -4.4473320715       -2.0346615402       -2.5020224584
 C         -3.1912346375       -2.6110791763       -2.3862412581
 C         -2.4496565392       -2.4599555979       -1.2246459658
 C         -2.9657313789       -1.7271386668       -0.1680181340
 H         -2.4070990788       -1.5913097908        0.7438305556
 H         -1.4601824687       -2.8787616512       -1.1416138424
 H         -2.7831312870       -3.1803367103       -3.2067834599
 H         -5.0203415289       -2.1563907496       -3.4073396506
 H         -5.9320874359       -0.8201338509       -1.5004047761
 H         -4.1514183078        1.7679809414        0.1438892886
 H         -2.8347037466        0.4363817124        3.2275931193
 H         -0.4029159347        0.3597245832        3.7126294692
 H          1.2199986007        1.0421849676        1.9886561434
 H          1.2562269155        2.8286499213       -0.1534596723
 C          0.1940882106        2.1445149363       -1.8791839724
 C         -0.3716494333        3.4836790395       -2.2449580938
 C          0.9379765910        3.0400342761       -2.8223535142
 H          0.9786388574        2.7700587253       -3.8668889344
 H          1.8433892075        3.5013939285       -2.4559339543
 H         -1.2303561160        3.5212982962       -2.8986166284
 H         -0.3562917338        4.2568023073       -1.4915533161
 H         -0.2721369639        1.2577190348       -2.2949029922
