  62
        -98.93876592
 C         -1.8432775201       -0.8099846365        0.3386070859
 C         -2.4394319054       -0.1784923788       -0.7773769063
 C         -3.5203509747        0.7809076218       -0.4826720463
 C         -3.8480547074        1.0263000443        0.7977356318
 C         -4.9462887596        1.9180096126        1.3075576355
 C         -6.2341986032        1.1113293863        1.5456182695
 C         -7.1418809494        0.9719888484        0.3240978163
 H         -7.9412009425        0.2770192803        0.5913816576
 H         -7.6056100527        1.9372671425        0.1101197830
 C         -6.4562062732        0.4664331168       -0.9479446231
 H         -7.2280328531        0.0625868944       -1.6060092930
 H         -5.7803608037       -0.3542161062       -0.7008156541
 C         -5.6900126012        1.5660771605       -1.6983533959
 H         -5.9926844101        1.5658810549       -2.7475208654
 H         -5.9757310211        2.5376673984       -1.2953981861
 C         -4.1601244795        1.4290908333       -1.6799036040
 H         -3.8384487218        0.8176969311       -2.5290129146
 H         -3.7107624281        2.4178014927       -1.8226032991
 H         -5.9467705482        0.1203070304        1.9062048784
 H         -6.8078299296        1.5937837780        2.3396629496
 H         -5.1200387706        2.7448058956        0.6252421800
 H         -4.6043781149        2.3176612334        2.2647184948
 O         -3.2183094043        0.4244516134        1.8449854859
 C         -2.2096921611       -0.5005253773        1.6472422593
 O         -1.7171438306       -0.9616164849        2.6977593613
 O         -2.0945071430       -0.4064320692       -1.9659485114
 C         -0.7369378028       -1.8292923481        0.1338791345
 C          0.4345733850       -1.1845592362       -0.5673956386
 C          1.0834068376       -1.7495688199       -1.6567857346
 C          2.1503140749       -1.0980215535       -2.2526975874
 C          2.5997139520        0.1173256414       -1.7718620351
 C          1.9717022006        0.6801702596       -0.6671612828
 C          0.9045286998        0.0260730039       -0.0719400330
 H          0.4139715352        0.4685827007        0.7868602412
 N          2.4325322001        1.9042649668       -0.1551823876
 S          4.0841729583        2.1301655395       -0.0154687600
 O          4.2464208659        3.0685257550        1.0731188314
 O          4.6266594947        2.5436170785       -1.2857661291
 C          4.7462432401        0.5335975582        0.4288512061
 C          4.2775362057       -0.0702867436        1.5788637631
 C          4.7608033736       -1.3220919093        1.9229693017
 C          5.7007839955       -1.9452104624        1.1160851252
 C          6.1661258965       -1.3230752637       -0.0317174984
 C          5.6842004102       -0.0719867995       -0.3822095128
 H          6.0149863315        0.4463022135       -1.2674663123
 H          6.8984188750       -1.8089976779       -0.6559840405
 H          6.0717907988       -2.9213269076        1.3858329009
 H          4.3988496910       -1.8067057479        2.8156514114
 H          3.5488727596        0.4402172478        2.1885698056
 H          1.9449725412        2.2159726701        0.6712460762
 H          3.4156543973        0.6454403463       -2.2378790141
 H          2.6364293441       -1.5418893988       -3.1077925639
 H          0.7472666207       -2.6950952035       -2.0484594779
 H         -0.4073239198       -2.1226600190        1.1414628284
 C         -1.2745473065       -3.0530425257       -0.5776978149
 C         -0.6517917348       -4.3956338816       -0.3441504288
 C         -2.0052374634       -4.0888770665        0.2209809873
 H         -2.8701328733       -4.5634870248       -0.2177495196
 H         -2.0924812073       -3.9237942676        1.2853913963
 H         -0.5890406874       -5.0863016990       -1.1713913342
 H          0.1813608876       -4.4482191947        0.3400502000
 H         -1.6532802800       -2.8261608354       -1.5674438266
