  62
        -98.93260820
 C         -2.6835639878       -1.2858990628       -0.2946337636
 C         -2.5609360809       -0.0456185295       -0.9646144828
 C         -3.7471411475        0.8287035956       -0.9367846647
 C         -4.8588545660        0.4193284489       -0.3030726452
 C         -6.1823202823        1.1314974205       -0.1777632562
 C         -6.1489957175        2.6325282686        0.1441160680
 C         -4.9708996580        3.0856822398        1.0190778387
 H         -5.3554627696        3.6760927619        1.8529121626
 H         -4.4616941869        2.2183478674        1.4432638211
 C         -3.9601726147        3.9494568585        0.2603544626
 H         -4.5065623396        4.6611693779       -0.3625082381
 H         -3.3793653284        4.5266520664        0.9838633634
 C         -2.9644396982        3.1842195629       -0.6105768368
 H         -2.2563134766        2.6425945077        0.0232670379
 H         -2.3868623997        3.9148401727       -1.1819413340
 C         -3.5837379744        2.1717981625       -1.5878741702
 H         -4.5224236791        2.5394648148       -1.9948769675
 H         -2.8786246703        2.0252190757       -2.4103491392
 H         -6.1407912569        3.2038816243       -0.7830731820
 H         -7.0875883813        2.8672375536        0.6489478573
 H         -6.7419368031        0.9768769504       -1.1047274458
 H         -6.7164422081        0.5993638757        0.6129912623
 O         -4.9354516265       -0.7904904750        0.3214870629
 C         -3.8583763929       -1.6567336238        0.3597093403
 O         -4.0687980228       -2.7107033899        0.9939353820
 H          0.8633495950       -1.0541461340       -0.9667304235
 C          0.6981645696       -1.0180297497        0.0983201441
 C         -0.4420093379       -1.5902768139        0.6378256522
 C         -0.6385373340       -1.5169308323        2.0146501150
 C          0.2814130669       -0.8810840436        2.8259014854
 C          1.4105942893       -0.2934806472        2.2817216035
 C          1.6144065454       -0.3582660496        0.9103141062
 N          2.7371781005        0.2677709377        0.3399040910
 S          4.2274724105        0.0896318847        1.1093752595
 O          4.4792116180       -1.3060354191        1.3948938612
 O          4.2693974097        0.9783519268        2.2437320473
 C          5.3309257889        0.6785572710       -0.1589212131
 C          5.4475148155        2.0425301358       -0.3488347844
 C          6.2846478337        2.5096053833       -1.3493347690
 C          6.9868112920        1.6105052095       -2.1385305086
 C          6.8601736116        0.2447121986       -1.9349875072
 C          6.0231138693       -0.2294625269       -0.9370169168
 H          5.8994990020       -1.2819316534       -0.7379507737
 H          7.4092994448       -0.4512548836       -2.5485391794
 H          7.6387203137        1.9768333750       -2.9158044663
 H          6.3871621017        3.5707121482       -1.5099977455
 H          4.8894856329        2.7034516857        0.2936071302
 H          2.8125978375        0.0795851318       -0.6503861362
 H          2.1342024901        0.2096522865        2.9024546549
 H          0.1182664702       -0.8362735149        3.8925904815
 H         -1.5295801420       -1.9615177643        2.4376034736
 C         -1.5074601746       -2.2454594992       -0.2080043878
 H         -1.8762265923       -3.1264387209        0.3347388416
 C         -1.0354852158       -2.6801438752       -1.5788421463
 C         -0.1537994114       -3.8850830590       -1.7052315497
 C         -1.5775899132       -3.9456476309       -2.1688545037
 H         -1.7741429819       -3.9758137134       -3.2300680520
 H         -2.2856242908       -4.5087679830       -1.5783565237
 H          0.6282533361       -3.8784888301       -2.4491420851
 H          0.1074932134       -4.4080662855       -0.7974669723
 H         -0.8682106440       -1.8517225267       -2.2557649398
 O         -1.5219059769        0.3214816930       -1.5715988421
