  62
        -98.94098177
 C         -2.2736772175       -0.5284738579        0.1895852092
 C         -3.5550175315       -1.0104130288        0.5502609180
 C         -4.6226582584       -0.0061028318        0.6069503857
 C         -4.3385959371        1.2840556536        0.3513479480
 C         -5.3136290039        2.4294917455        0.3933097200
 C         -6.1239845705        2.6069098478       -0.8981422454
 C         -7.2036492666        1.5510579165       -1.1389850947
 H         -7.8341718473        1.4693932618       -0.2531485886
 H         -7.8318618613        1.9160552322       -1.9539259530
 C         -6.6611034856        0.1656553116       -1.5167963626
 H         -5.6204297148        0.2567630346       -1.8367248487
 H         -7.2234949812       -0.2262179422       -2.3672886546
 C         -6.7455458503       -0.8747716403       -0.3999778716
 H         -6.3011941066       -1.8044888979       -0.7641716610
 H         -7.7928468676       -1.0723476327       -0.1613466852
 C         -6.0177309958       -0.4759268647        0.8904228904
 H         -6.5796376846        0.2952585752        1.4166061263
 H         -5.9469370512       -1.3582945081        1.5310033816
 H         -6.6073109661        3.5852847439       -0.8470084553
 H         -5.4328870981        2.6218510779       -1.7441910661
 H         -5.9932604793        2.3018617632        1.2363063995
 H         -4.7224822321        3.3332758615        0.5559314436
 O         -3.0863403753        1.7115052558        0.0347233355
 C         -2.0288116677        0.8191693653       -0.0723893785
 O         -0.9456776565        1.3459389175       -0.3941198849
 O         -3.7918340553       -2.2182935806        0.8195348011
 C         -1.1227416671       -1.5127159792        0.0846990916
 C         -0.0068149466       -1.0958779541        1.0095086272
 C         -0.2968545988       -0.9073283751        2.3589855327
 C          0.6848069327       -0.5042726249        3.2419960482
 C          1.9745421535       -0.2733992929        2.7960596317
 C          2.2784000067       -0.4700437934        1.4547732435
 C          1.2923540106       -0.8927078446        0.5728320203
 H          1.5510596972       -1.0312243018       -0.4624669811
 N          3.5980914867       -0.2874553358        0.9947597426
 S          3.8859541058        0.5533776271       -0.4423676168
 O          3.4245847629        1.9199299658       -0.3284945035
 O          3.3839581635       -0.2109675134       -1.5545623057
 C          5.6698261207        0.5129163262       -0.4519035285
 C          6.3867121268        1.6538124946       -0.1468336035
 C          7.7717807384        1.5940536821       -0.1401000220
 C          8.4123370132        0.4000019296       -0.4340187157
 C          7.6789176026       -0.7372974212       -0.7392146496
 C          6.2944412337       -0.6835998038       -0.7494733826
 H          5.6836312767       -1.5383238020       -0.9883956327
 H          8.1807284884       -1.6633504890       -0.9692087036
 H          9.4899745328        0.3557664918       -0.4277431396
 H          8.3440897449        2.4773529607        0.0936726172
 H          5.8451553384        2.5607888446        0.0695143385
 H          4.1906087293        0.1021454272        1.7176941311
 H          2.7398904704        0.0556155718        3.4830659963
 H          0.4441818904       -0.3576613813        4.2843800038
 H         -1.3093281789       -1.0729945409        2.7022083675
 H         -1.5260003278       -2.4726671695        0.4408403520
 C         -0.6935122021       -1.6718512422       -1.3581277453
 C         -0.0486128027       -2.9449574511       -1.8150488155
 C         -1.4471486124       -2.6178560711       -2.2422582509
 H         -1.6222969056       -2.3343370673       -3.2692949200
 H         -2.2614320019       -3.1695766146       -1.7954833881
 H          0.7429285742       -2.8831883953       -2.5466550244
 H          0.0876914471       -3.7249043310       -1.0813210075
 H         -0.3513531920       -0.7408049987       -1.7985996133
