  62
        -98.94861576
 C         -0.5593849316       -1.9292265767        0.3319749090
 C         -1.3732611787       -1.1406170920        1.1780927774
 C         -2.6695241555       -0.7361484451        0.6236177550
 C         -2.9878738352       -1.0711982237       -0.6398358354
 C         -4.2786493922       -0.7484030069       -1.3433479478
 C         -4.3245101334        0.6625849231       -1.9448505883
 C         -4.4946114890        1.7948817744       -0.9316624390
 H         -4.7522521231        2.6930608256       -1.4967260697
 H         -5.3345634813        1.5709267292       -0.2728504804
 C         -3.2411005188        2.0858463078       -0.0946542569
 H         -2.3657985603        1.6540925829       -0.5889819453
 H         -3.0832011130        3.1674486570       -0.0546331770
 C         -3.3080275841        1.5834199687        1.3482862631
 H         -4.0855227620        2.1292316731        1.8881354316
 H         -2.3493784738        1.7908663436        1.8295433847
 C         -3.5833832925        0.0816360402        1.4865062132
 H         -3.3983518859       -0.2035905904        2.5252692736
 H         -4.6239221233       -0.1342606741        1.2441964314
 H         -3.4098068415        0.8273876479       -2.5202668568
 H         -5.1670199121        0.6943816475       -2.6400127198
 H         -4.3777945748       -1.4722915666       -2.1551583677
 H         -5.1152880441       -0.8800013821       -0.6560544692
 O         -2.1559417877       -1.7890017686       -1.4397521038
 C         -0.9236427709       -2.2288131352       -0.9805514115
 O         -0.2664584130       -2.8762564691       -1.8189108101
 O         -1.0378934889       -0.8017830334        2.3454796578
 C          0.7877422349       -2.4140178539        0.8393361215
 C          1.8750398593       -1.8877061502       -0.0632094968
 C          2.8730856860       -2.6771256459       -0.6175614048
 C          3.7919893105       -2.1248127912       -1.4936564334
 C          3.7315897684       -0.7874488510       -1.8370723539
 C          2.7485773119        0.0162643446       -1.2678511659
 C          1.8510240373       -0.5320303002       -0.3681084973
 H          1.0806305900        0.0894560342        0.0653883912
 N          2.6818232399        1.3822848549       -1.5668898165
 S          1.3276722344        2.3036852124       -1.2721061791
 O          0.0973135912        1.6152569290       -1.5908149310
 O          1.5657680624        3.5262704508       -2.0124387491
 C          1.4117553234        2.6680652825        0.4697357309
 C          2.6160859318        2.5949508361        1.1405569630
 C          2.6529259813        2.9264764664        2.4859098829
 C          1.4961981024        3.3304345429        3.1339383308
 C          0.2964360840        3.4071187893        2.4444706287
 C          0.2531524045        3.0746408491        1.1000447488
 H         -0.6597462843        3.1131378139        0.5281642672
 H         -0.6048023851        3.7207666344        2.9469848871
 H          1.5278526220        3.5856243331        4.1813944208
 H          3.5851263901        2.8669778715        3.0243061446
 H          3.4992109710        2.2736924411        0.6141967746
 H          3.2294694330        1.7009406416       -2.3506912356
 H          4.4311171820       -0.3654190051       -2.5421542629
 H          4.5565879378       -2.7502133455       -1.9290579919
 H          2.9207492798       -3.7273937961       -0.3819753043
 H          0.9080250057       -1.9608560543        1.8345329816
 C          0.7896760764       -3.9212806439        0.9821242420
 C          1.6853848110       -4.5842373985        1.9845703838
 C          0.2064682409       -4.5332275803        2.2192075012
 H         -0.3653694039       -5.4439359872        2.1230008606
 H         -0.1714292967       -3.8587717680        2.9735362804
 H          2.1294170963       -5.5346265610        1.7297136949
 H          2.3157948035       -3.9489305217        2.5876956147
 H          0.6080876352       -4.4270464832        0.0401647719
