  62
        -98.94384501
 C         -1.2975028103       -1.4222597641        0.6165459197
 C         -2.0875242646       -1.0164529902       -0.4877453341
 C         -3.1120388099        0.0003477689       -0.2048054792
 C         -3.2326623987        0.4956079043        1.0391409909
 C         -4.1997842783        1.5671708726        1.4491310102
 C         -3.5661676522        2.9610926350        1.3437022201
 C         -2.8683221520        3.2317360869        0.0100303272
 H         -2.5091917987        4.2634485387        0.0382290397
 H         -1.9798801348        2.5993669823       -0.0709828009
 C         -3.7572078226        3.0359365083       -1.2262150004
 H         -3.5842996158        3.8687009943       -1.9113271579
 H         -4.8081364709        3.0677896211       -0.9349159994
 C         -3.4856805207        1.7517761018       -2.0123238741
 H         -3.9871337074        1.8339240307       -2.9805962078
 H         -2.4126386742        1.6641830574       -2.2044693526
 C         -3.9661939270        0.4516085793       -1.3552265321
 H         -5.0088578559        0.5563406162       -1.0482998174
 H         -3.9046276432       -0.3419988561       -2.1056844975
 H         -2.8249023077        3.0679972554        2.1392977063
 H         -4.3474732267        3.7069108043        1.5039658044
 H         -5.0851364774        1.5106496474        0.8187836496
 H         -4.4906811940        1.3894058788        2.4861614501
 O         -2.4436217880        0.0990035988        2.0699313057
 C         -1.4345845220       -0.8300949572        1.8736745306
 O         -0.7326036296       -1.0419082446        2.8839379356
 H          0.6025274242        0.0650600332       -0.1052556437
 C          1.0242306644       -0.6264809024       -0.8177169536
 C          0.7109312615       -1.9754647610       -0.7190309953
 C          1.2259061938       -2.8435874944       -1.6721315533
 C          2.0238867096       -2.3594450169       -2.6954277825
 C          2.3374761261       -1.0154337622       -2.7846239038
 C          1.8224372293       -0.1378794123       -1.8366083000
 N          2.0916906481        1.2370301887       -1.8877299985
 S          2.1443374934        2.1375816804       -0.4837874589
 O          0.8174181486        2.3418518345        0.0412655386
 O          2.8636830419        3.3359386487       -0.8606227443
 C          3.1383468142        1.1739793220        0.6423744885
 C          4.4710486582        1.0009088604        0.3200680563
 C          5.2678619469        0.2240712559        1.1440514513
 C          4.7203247708       -0.3701398152        2.2713979428
 C          3.3839230005       -0.1817215600        2.5858826699
 C          2.5828162054        0.5984623525        1.7662938459
 H          1.5385988237        0.7548733221        1.9906106279
 H          2.9487666449       -0.6409901645        3.4594599180
 H          5.3372950990       -0.9812428211        2.9109983637
 H          6.3091991242        0.0809811758        0.9049253577
 H          4.8624083371        1.4876124000       -0.5583650257
 H          2.7816060438        1.5248986817       -2.5646856520
 H          2.9578177826       -0.6440590911       -3.5855455820
 H          2.4104478787       -3.0425748578       -3.4364516129
 H          0.9876495966       -3.8935636045       -1.6297524032
 C         -0.1446421651       -2.3980218381        0.4520055617
 H          0.4655885139       -2.2609144708        1.3613270942
 C         -0.5439504688       -3.8662199622        0.4222105824
 C         -1.8737697538       -4.3221178431        0.9427580630
 C         -1.5776732817       -4.3968310016       -0.5235083228
 H         -1.4177446616       -5.3705516480       -0.9633017846
 H         -2.0555288094       -3.6890133143       -1.1814715322
 H         -2.5638561076       -3.5645509393        1.2861605719
 H         -1.9142531849       -5.2394726786        1.5110889900
 H          0.2968593400       -4.5186153183        0.6366614522
 O         -1.9530259839       -1.4680813336       -1.6540973706
