  62
        -98.94140839
 C         -1.5970448892       -0.3648248344        0.2934353096
 C         -2.7381220979       -1.0103985547       -0.2421653682
 C         -3.7956457915       -0.1216002459       -0.7449299001
 C         -3.6235509380        1.2116585197       -0.7286364659
 C         -4.5986079347        2.2397124245       -1.2348749131
 C         -5.6918451864        2.6148564305       -0.2249056809
 C         -6.7622435329        1.5467800230        0.0031786187
 H         -7.5740695695        2.0205196006        0.5588003695
 H         -7.1681861101        1.2293208270       -0.9578545645
 C         -6.2763364590        0.3210769677        0.7893499459
 H         -5.3420374584        0.5631160705        1.3011144275
 H         -7.0075702783        0.0699577238        1.5610746726
 C         -6.0643686129       -0.9327578309       -0.0591018224
 H         -7.0208836640       -1.2632720972       -0.4702245336
 H         -5.6852121410       -1.7258055633        0.5904395451
 C         -5.0720715857       -0.7518713182       -1.2151241036
 H         -4.8277726352       -1.7388379272       -1.6153484339
 H         -5.5226346078       -0.1549735987       -2.0077027596
 H         -5.2174640680        2.8638347596        0.7271136797
 H         -6.1833010679        3.5167557549       -0.5971357566
 H         -4.0158893258        3.1355296716       -1.4597677558
 H         -5.0600398805        1.8848682909       -2.1568651655
 O         -2.4915229531        1.7933604808       -0.2508297103
 C         -1.4699296197        1.0284877358        0.2848838440
 O         -0.5088562329        1.6951218282        0.7176726146
 H          2.0492036748       -0.2089140383        0.3379130214
 C          1.7668256714       -1.0104704841       -0.3269544310
 C          0.5151955730       -1.5946322530       -0.1981035869
 C          0.1523800508       -2.6081687739       -1.0787356375
 C          1.0344564186       -3.0282542764       -2.0570637417
 C          2.2929386734       -2.4627723092       -2.1653421879
 C          2.6618186851       -1.4436179269       -1.2948961955
 N          3.9191913174       -0.8358751811       -1.3965534483
 S          4.7156265221       -0.2505883917       -0.0493188969
 O          6.1019520562       -0.1809587519       -0.4597535544
 O          4.4414424694       -1.0485151560        1.1228116496
 C          4.0888103868        1.4019474240        0.1544462889
 C          4.1598211957        2.2626698616       -0.9226545610
 C          3.6859657021        3.5559878132       -0.7770615620
 C          3.1533946131        3.9647383180        0.4362548978
 C          3.0938030911        3.0902769932        1.5095301889
 C          3.5670006542        1.7956457253        1.3698837284
 H          3.5335005742        1.0823847118        2.1789198499
 H          2.6739082637        3.4080187053        2.4503051088
 H          2.7793150673        4.9702786231        0.5471266151
 H          3.7292273345        4.2406416614       -1.6089421825
 H          4.5825003195        1.9092571514       -1.8484594641
 H          4.5483747606       -1.2515245851       -2.0670292294
 H          2.9845151293       -2.8026341556       -2.9213548226
 H          0.7433620247       -3.8139099984       -2.7380339420
 H         -0.8294210024       -3.0482149041       -0.9985584787
 C         -0.4162752434       -1.1149588823        0.8892630606
 H          0.1331996941       -0.3745009896        1.4866207405
 C         -0.8187402468       -2.2566089794        1.8024351950
 C          0.2097071611       -2.8238953412        2.7326143963
 C         -0.9286390261       -2.0142740725        3.2760364431
 H         -1.7071653832       -2.5225885543        3.8250732387
 H         -0.7184288212       -1.0181703346        3.6381708842
 H          0.2135400192       -3.8886945931        2.9088051237
 H          1.1946159668       -2.3795385322        2.7204172188
 H         -1.5275577008       -2.9409661167        1.3562756391
 O         -2.8928668291       -2.2582188733       -0.3103825536
