  62
        -98.94578060
 C         -1.7000966304       -1.3067414904        0.3808470910
 C         -1.2961673901       -0.2098485506       -0.4176840891
 C         -1.8926043698        1.0894733296       -0.0784633293
 C         -2.7111945797        1.1837868099        0.9837929707
 C         -3.4165035194        2.4350064201        1.4185374906
 C         -4.7980641794        2.5555109904        0.7597646606
 C         -4.7815205894        2.3402148202       -0.7535737994
 H         -4.5045321697        1.3043688501       -0.9621688393
 H         -5.8035576294        2.4786982304       -1.1125310694
 C         -3.8383003592        3.2799304999       -1.5173678195
 H         -3.5850660590        4.1374714499       -0.8930263896
 H         -4.3609639191        3.6613746899       -2.3969730095
 C         -2.5516710194        2.6188837695       -2.0149762194
 H         -2.0672268992        3.3036153893       -2.7158292395
 H         -2.7990648896        1.7071233395       -2.5642555893
 C         -1.5203559195        2.2667175994       -0.9350256294
 H         -0.5896804795        1.9892943791       -1.4383444694
 H         -1.3180523392        3.1414496194       -0.3129302295
 H         -5.4593584196        1.8088791106        1.2058041307
 H         -5.2017266491        3.5443208705        0.9849670205
 H         -3.5399490294        2.3988650803        2.5025165706
 H         -2.8015144692        3.2965454599        1.1647712305
 O         -3.0283886100        0.1219186901        1.7685449209
 C         -2.5256707203       -1.1388637301        1.4940897810
 O         -2.8787503805       -2.0186706799        2.3066975911
 H          0.5839510796       -1.4088186208        1.6998182710
 C          1.0877175595       -1.8813271311        0.8680517911
 C          0.3528311493       -2.6087982510       -0.0611107588
 C          1.0280631492       -3.2026375013       -1.1194084488
 C          2.3987317092       -3.0545880417       -1.2488064988
 C          3.1180829694       -2.2919942017       -0.3474332589
 C          2.4498857396       -1.6925714014        0.7140723610
 N          3.1220567498       -0.8672733615        1.6429011909
 S          2.7184108102        0.7611235486        1.6060841108
 O          3.5502362503        1.3790381985        2.6175911207
 O          1.2959635002        0.9203071990        1.7649456207
 C          3.2559957603        1.3047263983       -0.0066894693
 C          2.4905838602        1.0000753083       -1.1144721693
 C          2.9647980503        1.3583097281       -2.3678904793
 C          4.1845140805        2.0047868578       -2.4926576394
 C          4.9404911205        2.3026026577       -1.3685890494
 C          4.4763993005        1.9448525280       -0.1134527594
 H          5.0274382105        2.1555364579        0.7889968406
 H          5.8883189707        2.8070540474       -1.4662796895
 H          4.5467598505        2.2778942476       -3.4712826894
 H          2.3717590302        1.1220986081       -3.2369285793
 H          1.5422045801        0.4979334386       -0.9967608592
 H          4.1293527097       -0.9516280317        1.6040748009
 H          4.1824136094       -2.1526900820       -0.4644055489
 H          2.9096091291       -3.5220223419       -2.0766431987
 H          0.4801029390       -3.7647443412       -1.8575546687
 C         -1.1386641007       -2.7007970406        0.1538634512
 H         -1.3054278008       -3.2307081104        1.1070198212
 C         -1.8617285009       -3.4999881205       -0.9206253587
 C         -3.2822360108       -3.1913497302       -1.2867019987
 C         -2.1807365408       -2.9189761506       -2.2641159688
 H         -2.0992058909       -3.5573353307       -3.1316627687
 H         -1.8911120605       -1.8960460907       -2.4430657889
 H         -3.7541845006       -2.3523266601       -0.7955069988
 H         -3.9521916610       -4.0163173601       -1.4778020186
 H         -1.5957982012       -4.5520929206       -0.8926420986
 O         -0.4812911901       -0.3011635409       -1.3728081591
