  62
        -98.94117474
 C         -1.9661186680       -0.9223448528       -0.2147740136
 C         -2.4895118623       -0.2572597492        0.9243368538
 C         -2.7334680815        1.1830720396        0.7945634014
 C         -2.4131747240        1.7967253349       -0.3586258421
 C         -2.6267002346        3.2549626494       -0.6439198951
 C         -3.9996334713        3.5056614251       -1.2833219174
 C         -5.1563015748        2.8347158615       -0.5425675595
 H         -6.0765185150        3.1030921994       -1.0657602979
 H         -5.0455627608        1.7508152006       -0.6201490796
 C         -5.2749333708        3.2268576374        0.9367561560
 H         -4.7151881476        4.1440736918        1.1224732247
 H         -6.3232534119        3.4344257763        1.1608790178
 C         -4.8151406744        2.1465872639        1.9175146433
 H         -5.3025909104        1.1993836665        1.6740691867
 H         -5.1422982485        2.4356079522        2.9197290719
 C         -3.3016327023        1.9050449959        1.9842422615
 H         -2.7824881222        2.8531635386        2.1403075648
 H         -3.1036543561        1.2601687071        2.8454611482
 H         -4.1679090734        4.5832542571       -1.3267871104
 H         -3.9788415503        3.1225553296       -2.3061759874
 H         -2.5374074610        3.8149929976        0.2851620200
 H         -1.8456402465        3.5849809544       -1.3313771942
 O         -1.8966531481        1.1369142300       -1.4240685158
 C         -1.6515472814       -0.2302367851       -1.3849475495
 O         -1.1784361491       -0.6743495382       -2.4501915928
 H          0.6424356929       -1.1971836024       -0.8196913489
 C          0.7872275404       -1.8749085116        0.0084450516
 C         -0.2830128768       -2.5907229230        0.5238357872
 C         -0.0537774940       -3.4673812954        1.5780433415
 C          1.2136855508       -3.6084847575        2.1139584529
 C          2.2691160767       -2.8587111859        1.6278431029
 C          2.0508135623       -1.9841302341        0.5691687261
 N          3.0932761761       -1.2012652304        0.0488966352
 S          2.7213362102        0.3794266289       -0.4270584436
 O          1.7170233397        0.9380161967        0.4502402051
 O          2.4300376105        0.3830006434       -1.8383118114
 C          4.2935775445        1.1761743672       -0.1463681952
 C          5.2688715979        1.0938077451       -1.1223543027
 C          6.5024079356        1.6805266966       -0.8877534529
 C          6.7398801427        2.3341877476        0.3123648439
 C          5.7509925089        2.4101089394        1.2817050284
 C          4.5153341894        1.8247579204        1.0537922294
 H          3.7128590370        1.8648906864        1.7729725708
 H          5.9364412825        2.9217872421        2.2123067133
 H          7.7006109600        2.7899408466        0.4922835480
 H          7.2720938954        1.6261556533       -1.6404969937
 H          5.0335037574        0.5833998803       -2.0417764733
 H          3.9334957217       -1.2369645573        0.6102657010
 H          3.2531299970       -2.9454546088        2.0628291549
 H          1.3772414426       -4.2917020447        2.9333029367
 H         -0.8817268695       -4.0235884913        1.9914055911
 C         -1.6732025110       -2.4021317278       -0.0400499837
 H         -2.3857770267       -2.7548911044        0.7194299137
 C         -1.8505352216       -3.2423026681       -1.2884368441
 C         -2.1672376076       -4.7004098915       -1.1498400372
 C         -3.2134598331       -3.7499946255       -1.6476949579
 H         -3.4906860173       -3.7785756514       -2.6904716737
 H         -4.0292216835       -3.4971207300       -0.9860709872
 H         -1.7229424377       -5.3895240948       -1.8511815371
 H         -2.2802978576       -5.0978281442       -0.1528704574
 H         -1.2019423482       -2.9412645226       -2.1008323232
 O         -2.7469883666       -0.8531208150        2.0062624447
