  62
        -98.94166654
 C         -2.0631239074       -1.5144420201        0.0525335053
 C         -2.3412592055       -0.5891109301       -0.9836858238
 C         -3.6771650659        0.0295456699       -0.9513529677
 C         -4.5404502877       -0.2973871393        0.0260881895
 C         -5.9062562822        0.2981787591        0.2043415953
 C         -5.8620327286        1.5277744862        1.1220989657
 C         -4.7798524681        2.5401357598        0.7464396432
 H         -4.8642421444        3.3793300884        1.4403794428
 H         -3.7977152585        2.0893294305        0.9080843337
 C         -4.8686720439        3.0587488976       -0.6957284123
 H         -4.7297860073        4.1419895854       -0.6870514358
 H         -5.8628174021        2.8632974671       -1.0992485065
 C         -3.8149011297        2.4825773640       -1.6433541707
 H         -2.8233412648        2.5945104974       -1.1968260490
 H         -3.8268881089        3.0731288695       -2.5634571921
 C         -4.0048427480        1.0128787305       -2.0401437608
 H         -5.0225502837        0.8596672069       -2.4045299783
 H         -3.3107030274        0.7980289248       -2.8579492940
 H         -6.8398844880        2.0121543950        1.0978996117
 H         -5.6747364513        1.1908417069        2.1443092660
 H         -6.3075376602        0.5726840173       -0.7693256942
 H         -6.5535722022       -0.4564226839        0.6543786746
 O         -4.2408126811       -1.1895348782        1.0036470933
 C         -3.0048581007       -1.8103923920        1.0435604917
 O         -2.8654404674       -2.6057469470        1.9941208191
 H          0.0561983008        0.2440606431       -0.4355011606
 C          0.5973107475       -0.1555348856        0.4093355112
 C          0.3071997587       -1.4375651497        0.8566385690
 C          1.0216734592       -1.9419709652        1.9367328635
 C          1.9947989677       -1.1774213895        2.5574040555
 C          2.2788072248        0.1004661161        2.1109346116
 C          1.5734541539        0.6116222450        1.0285785717
 N          1.8644220716        1.9033663875        0.5540312736
 S          3.4776157500        2.2785739348        0.3052819961
 O          4.0885136670        2.6262688440        1.5642651690
 O          3.4804203411        3.3121856115       -0.7051967324
 C          4.2049585853        0.7771050588       -0.3261713709
 C          5.1353467373        0.0895814729        0.4261668773
 C          5.6460986474       -1.1012578141       -0.0651415502
 C          5.2175343757       -1.5825401675       -1.2922976804
 C          4.2866199245       -0.8771038041       -2.0393990995
 C          3.7717799373        0.3135470718       -1.5527976578
 H          3.0470907734        0.8866941749       -2.1097304301
 H          3.9527348604       -1.2535611654       -2.9928462719
 H          5.6094559296       -2.5129910074       -1.6712233479
 H          6.3718961021       -1.6508300651        0.5121775686
 H          5.4406507562        0.4994044359        1.3749522401
 H          1.3035612471        2.1730370898       -0.2411540574
 H          3.0275826207        0.7130436074        2.5862521040
 H          2.5374957136       -1.5798392162        3.3988805433
 H          0.7994456839       -2.9353082712        2.2981167130
 C         -0.7461925777       -2.2671283112        0.1688613425
 H         -0.9688412711       -3.1245740570        0.8227131170
 C         -0.2763791336       -2.8334413014       -1.1662124204
 C          0.9151820079       -2.3290534376       -1.9173203528
 C          0.9750784341       -3.6585195822       -1.2316240088
 H          0.9718669488       -4.5561349516       -1.8308989795
 H          1.5690642826       -3.7264124744       -0.3327013828
 H          1.4815376553       -1.5148941981       -1.4939485619
 H          0.8461002467       -2.2982511631       -2.9939634366
 H         -1.1129111483       -3.1723482884       -1.7695708039
 O         -1.5328249347       -0.2761409517       -1.8963559637
