  62
        -98.94287678
 C         -2.4962137003       -0.2048064681       -0.2414875087
 C         -2.3209707563       -1.4062401255       -0.9721830948
 C         -1.7469732697       -2.5362877574       -0.2366678170
 C         -1.4169400105       -2.3866208310        1.0585603520
 C         -0.7909344636       -3.4340933328        1.9383495442
 C          0.7353279810       -3.5102962273        1.7902240520
 C          1.2291412355       -4.1796271096        0.5064849085
 H          2.2919378175       -4.3883739921        0.6445277737
 H          0.7211553660       -5.1363142947        0.3763520852
 C          1.0578232862       -3.3223846702       -0.7552115895
 H          1.9758084687       -3.3650752797       -1.3467936873
 H          0.9114498783       -2.2799788753       -0.4623186996
 C         -0.0875127287       -3.7557706743       -1.6710785698
 H          0.1264766340       -4.7453301377       -2.0822544297
 H         -0.1456045740       -3.0493535148       -2.5031629484
 C         -1.4634539436       -3.7988398024       -0.9944737153
 H         -2.2240756867       -3.8954079195       -1.7735756133
 H         -1.5299746838       -4.6610068151       -0.3311402647
 H          1.1204842293       -4.0736198871        2.6438480712
 H          1.1378269983       -2.4950075542        1.8471206823
 H         -1.2320212956       -4.4093446445        1.7290141858
 H         -1.0253467442       -3.1575880700        2.9686804099
 O         -1.6323614877       -1.2307533879        1.7374786890
 C         -2.1150157185       -0.0990360926        1.0983095228
 O         -2.1763323016        0.9052189304        1.8352828608
 O         -2.6167940546       -1.5217887856       -2.1930195307
 C         -2.9384801294        1.0284269080       -1.0128333947
 C         -1.9698954241        2.1470590140       -0.7167532576
 C         -2.3414644327        3.4300934028       -0.3416180717
 C         -1.3764094607        4.3681016165       -0.0139461854
 C         -0.0349656905        4.0355627918       -0.0140042079
 C          0.3468882708        2.7543642794       -0.3963071168
 C         -0.6150909924        1.8444291920       -0.7940702252
 H         -0.3108363444        0.8548572439       -1.1009670267
 N          1.7027679921        2.3529295307       -0.3865820598
 S          2.1088360123        1.0488927571        0.6178052405
 O          1.2158686270       -0.0559167703        0.3984284141
 O          2.2373003932        1.5242738942        1.9815423859
 C          3.7243895200        0.6570885935       -0.0252605567
 C          3.8145291740       -0.1986209461       -1.1055270915
 C          5.0636016918       -0.4814799317       -1.6348148299
 C          6.1956125807        0.0966565960       -1.0799527638
 C          6.0897454441        0.9531243813        0.0053717581
 C          4.8430338483        1.2387499948        0.5394315124
 H          4.7149379766        1.8870021575        1.3912105641
 H          6.9717865674        1.3981723216        0.4368308222
 H          7.1663320977       -0.1247101075       -1.4945726129
 H          5.1484379491       -1.1497611523       -2.4765840847
 H          2.9082688944       -0.6299791597       -1.4990090780
 H          2.3113788254        3.1219697947       -0.1318997196
 H          0.7119224367        4.7540287455        0.2906191932
 H         -1.6771892764        5.3629663051        0.2786154142
 H         -3.3849345504        3.6915831292       -0.2759718921
 H         -2.8171696003        0.7406712632       -2.0714509974
 C         -4.3983981129        1.4152143030       -0.8364696826
 C         -5.4109071996        0.4180627780       -0.3602460394
 C         -5.0260047576        1.5706889665        0.5152622730
 H         -5.7435724808        2.3655297912        0.6585050835
 H         -4.4037745537        1.3800498369        1.3753206784
 H         -6.3884215135        0.4204835728       -0.8188310598
 H         -5.0544997273       -0.5661414997       -0.0919992907
 H         -4.7331366969        2.1017035360       -1.6082758535
