  62
        -98.93105258
 C         -2.4135330912       -1.2097881004       -0.2998594100
 C         -1.9656714311        0.0951827596        0.0210427098
 C         -2.9513895011        0.9834086498        0.6716778897
 C         -4.1751995811        0.5133401098        0.9629085398
 C         -5.3272744811        1.2651236700        1.5695068797
 C         -6.2489954710        1.8232254699        0.4720009196
 C         -5.8447439110        3.1921325798       -0.0742493206
 H         -6.4900381610        3.4037642197       -0.9299142006
 H         -6.0448216309        3.9532391699        0.6828189094
 C         -4.3844455510        3.3163074397       -0.5170358006
 H         -4.0907703910        2.4231659296       -1.0715218105
 H         -4.3145883309        4.1609409096       -1.2051894407
 C         -3.4165903010        3.5489034498        0.6530666094
 H         -2.7839922609        4.4110505797        0.4320907593
 H         -3.9906911110        3.8078896799        1.5425819494
 C         -2.4733817710        2.3779860898        0.9721553496
 H         -2.1836797010        2.4276738399        2.0273082696
 H         -1.5502318510        2.4850691897        0.3937507495
 H         -6.2778883411        1.0947056098       -0.3424163703
 H         -7.2613603310        1.9044558800        0.8727444196
 H         -4.9700591010        2.0547247600        2.2239276896
 H         -5.8914575911        0.5432993100        2.1638677297
 O         -4.5513753411       -0.7636886002        0.6792461299
 C         -3.6948618712       -1.6469194603        0.0521348900
 O         -4.1808892812       -2.7803054503       -0.1346706899
 O         -0.8119472211        0.5311935896       -0.2297169502
 C         -1.5232499412       -2.2488142205       -0.9647814999
 C         -0.2235534412       -2.3575979605       -0.2082888199
 C         -0.1752562812       -3.1120144203        0.9596236002
 C          0.9871023088       -3.1844394003        1.7049054502
 C          2.1184690888       -2.4937092404        1.3081985401
 C          2.0730377488       -1.7243260705        0.1536653800
 C          0.9134006488       -1.6756160805       -0.6091576700
 H          0.8817843989       -1.0655646706       -1.4982498200
 N          3.2132008389       -1.0030959306       -0.2483509500
 S          4.0846249089       -0.2208899905        0.9703418799
 O          5.0291159688       -1.1625890705        1.5217655200
 O          3.1907299989        0.3978395496        1.9227598998
 C          4.9510597389        1.0236350894        0.0341423098
 C          6.2381894689        0.7763983593       -0.4026374102
 C          6.8908744890        1.7476808591       -1.1455105903
 C          6.2486327490        2.9412937991       -1.4384131305
 C          4.9556275090        3.1746279692       -0.9935968505
 C          4.2969742690        2.2077776094       -0.2507050704
 H          3.2947649290        2.3510611694        0.1226445296
 H          4.4586609091        4.1040149192       -1.2211838006
 H          6.7585751491        3.6969531991       -2.0148288205
 H          7.8964074990        1.5713857191       -1.4918011903
 H          6.6979896989       -0.1630606807       -0.1438851101
 H          2.9973485289       -0.3620521807       -1.0001745401
 H          3.0264356988       -2.5214998404        1.8896030601
 H          1.0119494187       -3.7760041302        2.6080498403
 H         -1.0662299813       -3.6328314803        1.2838624402
 H         -2.0648424812       -3.1998347804       -0.8406941798
 C         -1.3246834212       -2.0584211207       -2.4614990799
 C         -2.4851031612       -1.6776862607       -3.3311852000
 C         -1.3473805811       -0.7228976607       -3.1388714501
 H         -0.6707091611       -0.5633430308       -3.9659234301
 H         -1.5059887311        0.1532504193       -2.5311848302
 H         -2.5973541812       -2.1650786208       -4.2877693299
 H         -3.4217099311       -1.4632914206       -2.8364668000
 H         -0.6379432212       -2.7953294107       -2.8672209299
