  62
        -98.94438211
 C         -1.8416945817       -0.7711460662        0.2021641494
 C         -2.3619862697        0.5449081524        0.1640514616
 C         -3.7945080166        0.6690679830        0.4636418312
 C         -4.5114451718       -0.4252487365        0.7778954679
 C         -5.9750197157       -0.4556671725        1.1261190746
 C         -6.9051329937       -0.4988726940       -0.0940446876
 C         -7.0046722401        0.8073011464       -0.8829991293
 H         -7.2416541733        1.6250946772       -0.2017422448
 H         -7.8457664204        0.7026850775       -1.5713024752
 C         -5.7469771830        1.1565662076       -1.6910038026
 H         -6.0352224023        1.4656217139       -2.6983426931
 H         -5.1221507193        0.2666668758       -1.7965464899
 C         -4.9033342034        2.2841582150       -1.0958804417
 H         -5.4746017195        3.2151240277       -1.1080217838
 H         -4.0214725676        2.4225886588       -1.7268903249
 C         -4.4225097447        2.0241166859        0.3378394424
 H         -5.2515609732        2.1280988744        1.0375302943
 H         -3.6596990483        2.7670425153        0.5840492737
 H         -7.9034918403       -0.7569736267        0.2665722724
 H         -6.5738707901       -1.3008533653       -0.7577120248
 H         -6.2233407643        0.4076360315        1.7439942720
 H         -6.1360742870       -1.3622408127        1.7133723744
 O         -3.9639555897       -1.6686096088        0.8353676712
 C         -2.6282578442       -1.8752366560        0.5298984599
 O         -2.2631963690       -3.0665253598        0.5964338695
 O         -1.6714938663        1.5625922884       -0.1032018762
 C         -0.3821989815       -1.0169101914       -0.1367982013
 C          0.5076266275       -0.2025408359        0.7693769486
 C          0.2781062203       -0.2412993155        2.1431454237
 C          1.0531678523        0.5009258004        3.0114556569
 C          2.0866978768        1.2866261385        2.5311778142
 C          2.3331773117        1.3222458485        1.1649952556
 C          1.5520761568        0.5736045240        0.2930153461
 H          1.7578833371        0.6344955330       -0.7622990344
 N          3.3735017259        2.1088750055        0.6501217888
 S          4.2921947878        1.5506446230       -0.6247478120
 O          5.5423517904        2.2716443097       -0.5110931426
 O          3.5884934835        1.7130345763       -1.8715101768
 C          4.5589553537       -0.1832930137       -0.2941235192
 C          4.2874377325       -1.1121115639       -1.2767588329
 C          4.5014719515       -2.4553037119       -1.0104738719
 C          4.9787902852       -2.8448033773        0.2308769242
 C          5.2521096512       -1.8989028017        1.2072953407
 C          5.0437401509       -0.5549844961        0.9446447997
 H          5.2564467915        0.2014093467        1.6821785281
 H          5.6253526335       -2.2050345050        2.1712598762
 H          5.1397968929       -3.8910532740        0.4379126450
 H          4.2928822515       -3.1908583253       -1.7711313283
 H          3.9111501993       -0.7671770264       -2.2259268197
 H          3.9325097881        2.5864953070        1.3411382233
 H          2.6882579156        1.8759062423        3.2063561260
 H          0.8539803576        0.4680582269        4.0719772585
 H         -0.5305773634       -0.8540204230        2.5181522631
 H         -0.1967990611       -2.0816781700        0.0675190141
 C         -0.1515439955       -0.7561216473       -1.6106795074
 C          0.9040835218       -1.5105006984       -2.3587669515
 C         -0.5441662532       -1.8099692373       -2.6006301244
 H         -0.9885439184       -1.5010388052       -3.5350116244
 H         -0.9502891138       -2.7305298923       -2.2067642971
 H          1.4547162981       -0.9905936869       -3.1286242464
 H          1.4851940226       -2.2333483330       -1.8066555037
 H         -0.3317241259        0.2775993791       -1.8846899375
