  62
        -98.94124924
 C         -2.3770963183       -1.0697800181       -0.5683950941
 C         -3.5407080905       -0.7134726337        0.1636128186
 C         -4.1602673780        0.5730112845       -0.1748275314
 C         -3.6047261689        1.3347128065       -1.1344146777
 C         -4.0904860107        2.6953481294       -1.5399211191
 C         -3.3966242544        3.7969438116       -0.7265779164
 C         -3.4099277202        3.5531835139        0.7826846846
 H         -2.7961429331        2.6772605263        1.0080868563
 H         -2.9239894096        4.4102668626        1.2543194132
 C         -4.8096450591        3.3626451100        1.3838791923
 H         -4.8787807926        3.9515516922        2.3008258379
 H         -5.5635959117        3.7452891674        0.6950668956
 C         -5.1486413272        1.9179885081        1.7557571157
 H         -4.3460979665        1.5005434321        2.3694158749
 H         -6.0558945261        1.9279552304        2.3655837159
 C         -5.3993724767        0.9674315574        0.5784423302
 H         -5.8114948980        0.0388157997        0.9838503052
 H         -6.1367252130        1.4053148895       -0.0973180504
 H         -2.3552128243        3.8643659701       -1.0505093498
 H         -3.8840963921        4.7482855152       -0.9474448836
 H         -3.8649117478        2.8405824826       -2.5976739047
 H         -5.1680123966        2.7478367810       -1.3967355271
 O         -2.4962383521        0.9611899325       -1.8195299195
 C         -1.8490253855       -0.2373973809       -1.5553538523
 O         -0.8463588567       -0.4241803898       -2.2740640450
 O         -4.0430007480       -1.4468309727        1.0566854903
 C         -1.7232164515       -2.3956617386       -0.2105382568
 C         -0.5021081430       -2.1509943964        0.6436561244
 C         -0.5399650172       -2.3842784417        2.0138645776
 C          0.5635621516       -2.1183876629        2.8055452780
 C          1.7258015494       -1.6126541642        2.2506023799
 C          1.7681960526       -1.3640345439        0.8850482367
 C          0.6652666010       -1.6434099912        0.0912291457
 H          0.6988377084       -1.4251604319       -0.9656795196
 N          2.9452143545       -0.8378887041        0.2997033941
 S          3.3979866763        0.7047631677        0.8250125069
 O          3.6877366274        0.6430100473        2.2348955921
 O          2.4108477998        1.6857717721        0.4230795515
 C          4.9066234002        0.9302135036       -0.0950244224
 C          6.0792472374        0.4067425222        0.4145708433
 C          7.2486452148        0.5498227344       -0.3148637978
 C          7.2254956515        1.2078100771       -1.5355925967
 C          6.0405007057        1.7276357747       -2.0340845227
 C          4.8671207245        1.5871293258       -1.3096336897
 H          3.9247691679        1.9822425708       -1.6553736937
 H          6.0248848048        2.2403890116       -2.9824390244
 H          8.1366507784        1.3187839552       -2.1019248412
 H          8.1724004879        0.1485907543        0.0695322719
 H          6.0498615739       -0.0896200234        1.3701976501
 H          2.8431673869       -0.7941869344       -0.7075887488
 H          2.5842412010       -1.3831086354        2.8597186449
 H          0.5185950957       -2.3051612124        3.8679758024
 H         -1.4511069082       -2.7590807651        2.4580407829
 H         -2.4638634335       -2.9185365585        0.4093101053
 C         -1.4155227321       -3.2576836031       -1.4182307241
 C         -1.1903828950       -4.7258782683       -1.2212694897
 C         -2.4398148631       -4.2425430413       -1.8927613447
 H         -2.5501219220       -4.3976707655       -2.9555046824
 H         -3.3691643074       -4.2997461650       -1.3450701153
 H         -0.4401685362       -5.2168331138       -1.8216596171
 H         -1.2723623366       -5.1117735575       -0.2164915484
 H         -0.8290401558       -2.7534555000       -2.1748824199
