  62
        -98.93743156
 C         -2.4507531633       -1.1414775579        0.2324351923
 C         -3.1118769571       -0.3122367948        1.1749139821
 C         -4.4512209849        0.1615743326        0.8069668240
 C         -4.9773844687       -0.2176529834       -0.3717835139
 C         -6.3105491935        0.2249887112       -0.8996599868
 C         -6.1773641119        1.4962932159       -1.7496566657
 C         -5.3670841187        2.6054837196       -1.0788019628
 H         -4.3301396846        2.2775211084       -0.9752703150
 H         -5.3666579239        3.4627077926       -1.7554475522
 C         -5.8994744133        3.0386641034        0.2943035017
 H         -5.9012338671        4.1296820754        0.3411192280
 H         -6.9319183137        2.7079642604        0.4130523883
 C         -5.0699485442        2.5439359104        1.4808097759
 H         -4.0171897259        2.7907026581        1.3207472606
 H         -5.3995278228        3.0814837288        2.3740285733
 C         -5.1714636960        1.0442670031        1.7869238976
 H         -6.2215075613        0.7550531918        1.8662212328
 H         -4.6928668869        0.8693462882        2.7550577344
 H         -5.6861674968        1.2342554221       -2.6894936399
 H         -7.1790705505        1.8633551305       -1.9803334625
 H         -6.7173650110       -0.5753536483       -1.5199724360
 H         -6.9849430063        0.4024121667       -0.0641515586
 O         -4.3226097443       -1.0204957482       -1.2453106760
 C         -3.0405452514       -1.4921348099       -0.9834074234
 O         -2.5721509243       -2.1917250042       -1.8979693380
 O         -2.6015066341        0.0091835581        2.2830608224
 C         -1.0687507734       -1.6332787318        0.6224941279
 C          0.0100084937       -0.7097148020        0.1201645121
 C          0.0750084774       -0.3195170173       -1.2139337037
 C          1.0946659123        0.5042656798       -1.6559871043
 C          2.0698199024        0.9524386169       -0.7809205343
 C          2.0076362576        0.5763137093        0.5529938727
 C          0.9815588841       -0.2456570932        0.9950191598
 H          0.9386655901       -0.5299394972        2.0384470582
 N          3.0296986792        1.0102356294        1.4363996634
 S          4.4102694231        0.0428197859        1.3411950404
 O          4.0543365033       -1.3518188149        1.1965391582
 O          5.2053713196        0.3794509280        2.5010634540
 C          5.2098464956        0.6254206385       -0.1351744150
 C          5.1821940128       -0.1513463638       -1.2764713691
 C          5.7886463954        0.3292931924       -2.4265053994
 C          6.4069803691        1.5704359091       -2.4138105828
 C          6.4275200828        2.3370205924       -1.2578086464
 C          5.8227950690        1.8629525825       -0.1047124570
 H          5.8183324746        2.4210673945        0.8167808744
 H          6.9107720868        3.3007550501       -1.2526157387
 H          6.8765591615        1.9421511980       -3.3108852898
 H          5.7733900603       -0.2644598655       -3.3263095288
 H          4.6868420755       -1.1083520072       -1.2402392930
 H          2.7243972315        1.0308283880        2.4007878364
 H          2.8639819176        1.5980558042       -1.1185120391
 H          1.1322642050        0.7979305519       -2.6938605077
 H         -0.6798582791       -0.6759510840       -1.8989466030
 H         -1.0578748310       -1.5772922733        1.7233604205
 C         -0.8103439851       -3.0872479212        0.2526222783
 C          0.0855928471       -3.5230484342       -0.8630895862
 C          0.5173565909       -3.7176158215        0.5575563607
 H          0.5338225487       -4.7177116049        0.9640471959
 H          1.3062254289       -3.0793458032        0.9306081801
 H         -0.2200372029       -4.3820813534       -1.4402939743
 H          0.5847691691       -2.7655841562       -1.4456668835
 H         -1.6880129987       -3.7028385000        0.4252005550
