  62
        -98.94501680
 C          1.7972904920        0.9095381671       -0.4813307085
 C          0.8192824108        1.6306721218       -1.2105188297
 C          0.1257708635        2.7036454790       -0.4892296030
 C          0.4147676893        2.9156982928        0.8069910989
 C         -0.2449232266        3.9492797531        1.6732599495
 C         -1.4605278297        3.3691070844        2.4085755532
 C         -2.4176744942        2.5910176994        1.5052797092
 H         -1.9091917422        1.6886132273        1.1556477305
 H         -3.2498306285        2.2591906993        2.1320882672
 C         -2.9613331542        3.3878166891        0.3105672309
 H         -4.0334140275        3.1970748104        0.2256665725
 H         -2.8368689221        4.4557645412        0.4951811932
 C         -2.3360893786        3.0300544407       -1.0390959582
 H         -2.9470799635        3.4805492566       -1.8257084747
 H         -2.3612756873        1.9465740126       -1.1790000760
 C         -0.8930728199        3.5030523382       -1.2512607650
 H         -0.6509438276        3.3677245257       -2.3093278668
 H         -0.8110138857        4.5650162470       -1.0111672940
 H         -1.9951164731        4.1884093168        2.8940251421
 H         -1.1043214837        2.6856499788        3.1833211970
 H         -0.5495764949        4.7918180219        1.0549163936
 H          0.4820586879        4.2949802763        2.4104819880
 O          1.3256075200        2.1781933221        1.4885502665
 C          2.0069988775        1.1313841861        0.8814204691
 O          2.7616304787        0.5104714304        1.6534215083
 O          0.5366452159        1.3845708637       -2.4147118865
 C          2.4915415555       -0.2398528300       -1.1938120676
 C          2.2955026081       -1.4947904468       -0.3829936340
 C          3.3235637366       -2.2981776483        0.0887389924
 C          3.0383506906       -3.3997744739        0.8780068189
 C          1.7363948242       -3.7099105309        1.2243989137
 C          0.6996855568       -2.9137994369        0.7488485307
 C          0.9848381162       -1.8383076492       -0.0729973972
 H          0.1796166727       -1.2154295307       -0.4368619211
 N         -0.6386425664       -3.1946863027        1.0637248495
 S         -1.7552281904       -1.9585711916        1.2039062374
 O         -1.1597902936       -0.7249363497        1.6623943726
 O         -2.7987249425       -2.5037275483        2.0489684747
 C         -2.4232199743       -1.7409556774       -0.4346039120
 C         -3.2940940892       -0.6844208555       -0.6173065727
 C         -3.8621453790       -0.4852575106       -1.8654091023
 C         -3.5518220419       -1.3447944714       -2.9076640083
 C         -2.6805328021       -2.4036062864       -2.7076215487
 C         -2.1109580654       -2.6097940421       -1.4602798660
 H         -1.4258967343       -3.4217288479       -1.2808008738
 H         -2.4386692422       -3.0702258875       -3.5197857080
 H         -3.9900150446       -1.1861681070       -3.8802486121
 H         -4.5394545214        0.3395407040       -2.0193975809
 H         -3.5053107991       -0.0368343598        0.2192607503
 H         -0.7829187264       -3.9172279548        1.7529634922
 H          1.5201894766       -4.5517312354        1.8644409137
 H          3.8454330032       -4.0141991963        1.2474882506
 H          4.3474138555       -2.0466587305       -0.1338307708
 H          1.9205693106       -0.3525763592       -2.1313177271
 C          3.9328846452        0.0198439779       -1.6000068989
 C          4.4286293924        1.4157541425       -1.8289213324
 C          4.9465902573        0.6169805916       -0.6724073982
 H          5.9611713890        0.2486255478       -0.7212179464
 H          4.6228967665        0.8766369174        0.3226255488
 H          5.0847507150        1.5986160255       -2.6666619217
 H          3.7455769974        2.2270278232       -1.6212702878
 H          4.2970601749       -0.7349652440       -2.2905234614
