  62
        -98.93525754
 C         -1.6995434329       -0.0533316695        0.3994419416
 C         -2.8754041227        0.1473845444        1.1555045430
 C         -4.1565983753       -0.0064923260        0.4412532799
 C         -4.1397194286       -0.3438222991       -0.8610741793
 C         -5.3032171439       -0.5492071975       -1.7982454976
 C         -6.4963014263       -1.3498173745       -1.2538792963
 C         -7.7417428061       -0.4956997252       -1.0100429729
 H         -7.8309900988        0.2287685788       -1.8222699481
 H         -8.6219785573       -1.1411483485       -1.0515899707
 C         -7.7728105073        0.2405275764        0.3281933398
 H         -8.6330262799        0.9140860496        0.3152437940
 H         -7.9366710067       -0.4792577522        1.1331681799
 C         -6.5187872947        1.0532400823        0.6563642896
 H         -6.1560977530        1.5712980852       -0.2307968257
 H         -6.7988894554        1.8210868451        1.3808172935
 C         -5.3884726929        0.2173132222        1.2754663474
 H         -5.0214495523        0.7101618525        2.1813365188
 H         -5.7765313130       -0.7527582527        1.5992746386
 H         -6.7506079930       -2.1111984265       -1.9930305951
 H         -6.2087478341       -1.8700434180       -0.3416099228
 H         -5.6423238648        0.4290889494       -2.1481338391
 H         -4.8794046031       -1.0591472511       -2.6662808207
 O         -2.9772985479       -0.5303342083       -1.5502808993
 C         -1.7367096450       -0.3865418545       -0.9536503240
 O         -0.7714807021       -0.5808064201       -1.7152114082
 O         -2.8592739475        0.4541739251        2.3792233239
 C         -0.3499344500        0.1032097047        1.0745049020
 C          0.4636091883        1.1681747983        0.3819031205
 C         -0.1393630092        2.3852061349        0.0724037740
 C          0.5683640538        3.3816679020       -0.5696577364
 C          1.8983158236        3.1934874692       -0.9037585659
 C          2.5142199706        1.9897425897       -0.5874738370
 C          1.7968837413        0.9865560432        0.0512578119
 H          2.2938459489        0.0613264461        0.2888892274
 N          3.8542469330        1.7602852542       -0.9281284183
 S          4.8595623236        0.9156840314        0.1049697564
 O          4.5445541546        1.1780743837        1.4898710174
 O          6.1970813457        1.2754008763       -0.3169654163
 C          4.5819095702       -0.8017472000       -0.2733753593
 C          4.6521442580       -1.7262551089        0.7500194855
 C          4.4783423481       -3.0694205892        0.4548965764
 C          4.2387156283       -3.4625681024       -0.8525724836
 C          4.1746744838       -2.5218572138       -1.8692353070
 C          4.3518948459       -1.1779879758       -1.5816388031
 H          4.3021810961       -0.4225893774       -2.3478149937
 H          3.9839399558       -2.8306069345       -2.8844916123
 H          4.0992555681       -4.5076441574       -1.0802024168
 H          4.5281006272       -3.8025859026        1.2444454850
 H          4.8288125051       -1.3747233936        1.7542584700
 H          4.3267130994        2.5367957874       -1.3667991838
 H          2.4529454068        3.9707231118       -1.4072944038
 H          0.0838300238        4.3164684162       -0.8090516660
 H         -1.1772014332        2.5358394567        0.3371911336
 H         -0.5700093252        0.4528072668        2.0945998958
 C          0.3505911121       -1.2365980808        1.1601541128
 C          1.3128958303       -1.5194139989        2.2735331666
 C         -0.0305237346       -2.1827505147        2.2576490009
 H         -0.0824087680       -3.2375613970        2.0341905840
 H         -0.7775594467       -1.8477900162        2.9624476918
 H          2.1831258698       -2.1203959231        2.0576428818
 H          1.4889769673       -0.7350678462        2.9944249011
 H          0.5590156545       -1.6592220054        0.1833600218
