  62
        -98.94529097
 C          1.7036208495        0.8531266291        0.1807290994
 C          2.7671466397        0.5668048696        1.0691384193
 C          3.4988986498       -0.6823687304        0.8188120196
 C          3.1090169797       -1.4817435008       -0.1910513800
 C          3.7975305998       -2.7536346209       -0.5915542696
 C          4.8729172496       -2.4910548411       -1.6553322699
 C          5.8218010195       -1.3446048709       -1.3056226205
 H          6.5538754693       -1.2711384711       -2.1126906907
 H          5.2606751694       -0.4073813909       -1.2946248608
 C          6.5532446697       -1.5116597503        0.0336315394
 H          6.5132824999       -2.5545006402        0.3506660298
 H          7.6055781397       -1.2564081302       -0.1075929709
 C          6.0264948298       -0.6199039599        1.1595279892
 H          5.9792404996        0.4161865299        0.8146674288
 H          6.7414839100       -0.6569146895        1.9858134791
 C          4.6533276500       -1.0023839699        1.7260481896
 H          4.6493914302       -2.0599350598        1.9988197999
 H          4.4928402201       -0.4135307596        2.6342336294
 H          4.3758992194       -2.2486039815       -2.5974131999
 H          5.4458377097       -3.4088446811       -1.7999936997
 H          3.0510747598       -3.4355710711       -1.0027324593
 H          4.2461313100       -3.2110895505        0.2883096504
 O          2.0572261495       -1.1941575712       -0.9991830999
 C          1.3377326694       -0.0135918613       -0.8498996702
 O          0.4139415792        0.1281778183       -1.6698684801
 O          3.0872129297        1.3195818300        2.0293350490
 C          0.9365863393        2.1489279991        0.3555087590
 C         -0.5407616106        1.9178722690        0.5639735694
 C         -1.4951578908        2.8512842087        0.1744956792
 C         -2.8413039307        2.6205065186        0.3982390595
 C         -3.2701585705        1.4496244788        0.9955938100
 C         -2.3260972303        0.5043159491        1.3751362902
 C         -0.9757774803        0.7521533292        1.1788358999
 H         -0.2487716802        0.0127518894        1.4919675400
 N         -2.7521360200       -0.7123176208        1.9338019707
 S         -4.0520082801       -1.4811440712        1.2070217912
 O         -5.2782071000       -0.9939655012        1.7909422713
 O         -3.7998762098       -2.8955574811        1.3816355617
 C         -4.0049376904       -1.0372171518       -0.5218824789
 C         -5.1543384206       -0.5672644322       -1.1255906589
 C         -5.1104701209       -0.2060902027       -2.4623441791
 C         -3.9202691210       -0.3073837228       -3.1662850492
 C         -2.7748945808       -0.7829545124       -2.5469466392
 C         -2.8175526105       -1.1596826420       -1.2148032391
 H         -1.9303492504       -1.5235844817       -0.7212765091
 H         -1.8361914709       -0.8415864025       -3.0740719894
 H         -3.8813570812       -0.0114244232       -4.2027486793
 H         -6.0001600310        0.1622235970       -2.9472156590
 H         -6.0523843105       -0.4860746621       -0.5347841888
 H         -2.0026057699       -1.3646006806        2.1115050008
 H         -4.3147313704        1.2498814787        1.1727771403
 H         -3.5678471009        3.3587643384        0.0961824294
 H         -1.1819265810        3.7633485486       -0.3062900412
 H          1.3410569694        2.6044445395        1.2727493788
 C          1.2215804190        3.0755784887       -0.8116781414
 C          1.3451240489        4.5548888788       -0.6055636819
 C          2.5647804789        3.7348397089       -0.8960981519
 H          3.0359487887        3.8277371486       -1.8631294620
 H          3.2587294591        3.5466769492       -0.0894672319
 H          0.9790015886        5.2150012985       -1.3774682721
 H          1.2221053690        4.9346497492        0.3975923479
 H          0.7795949989        2.7217753583       -1.7363920612
