  62
        -98.94330753
 C         -2.5102769633        1.0467196602        0.1564945703
 C         -3.6555755300        0.8819891402       -0.6593961448
 C         -4.6869596915       -0.0213969159       -0.1383353246
 C         -4.5098606873       -0.6185825561        1.0544662694
 C         -5.4798205666       -1.5498456696        1.7298124046
 C         -5.3740190618       -3.0077134547        1.2614603392
 C         -5.9165552492       -3.2810053039       -0.1418937501
 H         -5.9809142956       -4.3650481344       -0.2548478588
 H         -6.9293735630       -2.8849807227       -0.2222974638
 C         -5.0496767457       -2.7177155543       -1.2766756250
 H         -4.0534832239       -2.4852036261       -0.8929947978
 H         -4.9243080846       -3.4778580978       -2.0510646065
 C         -5.6226817721       -1.4724553246       -1.9535052065
 H         -4.9129648409       -1.1386770446       -2.7148601872
 H         -6.5591437790       -1.7258530752       -2.4553686380
 C         -5.8816690019       -0.2982485099       -1.0003415054
 H         -6.0729584449        0.5948212090       -1.6003635486
 H         -6.7576677326       -0.4997988624       -0.3842852477
 H         -4.3273383609       -3.3160888268        1.3141513378
 H         -5.9369263760       -3.6190637411        1.9705262927
 H         -5.2522651506       -1.5140755550        2.7973202131
 H         -6.4982896269       -1.1908223345        1.5793192524
 O         -3.4006643019       -0.4218242202        1.8153846422
 C         -2.3662898170        0.3949424499        1.3811759988
 O         -1.4024221224        0.4605872791        2.1672813040
 O         -3.8073877692        1.4618615485       -1.7679536556
 C         -1.3912996881        1.9506789668       -0.3301075339
 C         -0.1358134431        1.1353467450       -0.5162520268
 C         -0.1560044088        0.0847428305       -1.4309957883
 C          0.9610472864       -0.7024546901       -1.6290409634
 C          2.1243336631       -0.4637042457       -0.9169772885
 C          2.1586729332        0.5845147991       -0.0090376763
 C          1.0349761157        1.3809850615        0.1813890438
 H          1.0781406359        2.1887754908        0.8950075303
 N          3.3279550376        0.8246234335        0.7280457158
 S          4.8118499060        0.8214573312       -0.0481437240
 O          5.6741041085        1.6295425634        0.7862718668
 O          4.6891875381        1.2297043278       -1.4283117997
 C          5.3435861920       -0.8754912840        0.0423134752
 C          5.7302398895       -1.5378649904       -1.1062017155
 C          6.1535783510       -2.8544513375       -1.0107030816
 C          6.1836425540       -3.4815302418        0.2253607117
 C          5.7945019693       -2.8014738339        1.3698886054
 C          5.3711351448       -1.4850696840        1.2812641496
 H          5.0625478597       -0.9230461559        2.1469967506
 H          5.8186424262       -3.2925325876        2.3294362828
 H          6.5126543730       -4.5061829245        0.2976614657
 H          6.4568562484       -3.3847483653       -1.8991239909
 H          5.6854037649       -1.0118837542       -2.0466490125
 H          3.2536690814        1.5848229290        1.3875825866
 H          2.9984796602       -1.0769485468       -1.0625505312
 H          0.9278960803       -1.5131397570       -2.3411741822
 H         -1.0660360961       -0.1049383782       -1.9839666548
 H         -1.7146796926        2.3064502580       -1.3192554635
 C         -1.2269469082        3.1451623842        0.5846727000
 C         -0.5770678584        4.3949663449        0.0725113566
 C         -2.0522192727        4.3702524310        0.3351886089
 H         -2.4346304162        4.9156249076        1.1849171414
 H         -2.7236913751        4.3537389793       -0.5106767551
 H          0.0532272733        4.9622668426        0.7409576366
 H         -0.2434336586        4.3987540979       -0.9543186839
 H         -1.0548341778        2.8638597926        1.6175554504
