  62
        -98.93800558
 C         -1.3652846446       -1.5452760302        0.0584522666
 C         -2.5324755958       -1.1345575967        0.7436444068
 C         -3.2145248902        0.0727083738        0.2440778894
 C         -2.6912568420        0.7271032758       -0.8079958716
 C         -3.1800185584        1.9853121774       -1.4805707232
 C         -4.6934622384        2.1126485383       -1.7116931283
 C         -5.3636154279        3.1495240978       -0.8083407114
 H         -4.6974099189        4.0097935606       -0.7150358529
 H         -6.2787640926        3.4961965483       -1.2935314207
 C         -5.7410188318        2.6518661647        0.5857613665
 H         -6.0724752602        3.5156905193        1.1667198807
 H         -6.5882792847        1.9670044250        0.5087315079
 C         -4.6209830876        1.9467987880        1.3532945170
 H         -3.6723983359        2.4657142982        1.2130043207
 H         -4.8574446204        2.0029716581        2.4182569676
 C         -4.4638871913        0.4635001974        0.9852452386
 H         -5.3356527595        0.1248906599        0.4178837969
 H         -4.4434432666       -0.1407613006        1.8976967633
 H         -4.8446082336        2.4229619407       -2.7468901095
 H         -5.1700601401        1.1409681316       -1.5931175169
 H         -2.8156480138        2.8395521651       -0.9032832363
 H         -2.6546877285        2.0152572716       -2.4381714887
 O         -1.5488867820        0.3123801433       -1.4220510591
 C         -0.8437052115       -0.7991492055       -0.9973324549
 O          0.1994272242       -1.0123097601       -1.6443605152
 O         -2.9855759591       -1.7504018963        1.7477775049
 C         -0.6138740902       -2.7524247465        0.5906872016
 C          0.8511356763       -2.4174001390        0.7233471755
 C          1.8797886703       -3.2075919316        0.2275349726
 C          3.2001107649       -2.8171368278        0.3759321975
 C          3.5209572530       -1.6233181227        0.9945797680
 C          2.4976358417       -0.8250910316        1.4926262902
 C          1.1820836881       -1.2389814158        1.3825516940
 H          0.3997015083       -0.6045046580        1.7746940301
 N          2.7584587535        0.4268196615        2.0946107751
 S          2.2512317771        1.7665757415        1.2194406517
 O          2.6526757774        2.9108584478        2.0110168386
 O          0.8457836930        1.6574153975        0.9253834150
 C          3.2388061541        1.7042290954       -0.2653094422
 C          2.8787952563        0.8472699791       -1.2859169172
 C          3.7114168825        0.7460137570       -2.3910455539
 C          4.8775969753        1.4922455609       -2.4559051294
 C          5.2228543705        2.3490555984       -1.4211283472
 C          4.4001969277        2.4526508500       -0.3117553721
 H          4.6250746462        3.1051938212        0.5165721263
 H          6.1287760858        2.9311667561       -1.4738021688
 H          5.5197185551        1.4054673203       -3.3182374291
 H          3.4358395554        0.0774339994       -3.1907989857
 H          1.9639566454        0.2778186669       -1.2206398164
 H          3.7289969575        0.5567302452        2.3489664759
 H          4.5486032250       -1.3046118339        1.0855026034
 H          3.9880453538       -3.4419745598       -0.0157928030
 H          1.6498378790       -4.1217034291       -0.2944934732
 H         -1.0191967949       -2.8972525848        1.6069308035
 C         -0.8776685919       -4.0441821162       -0.1689302647
 C         -2.1208952044       -4.2214260006       -0.9869645246
 C         -0.7880987226       -4.1205593017       -1.6627556876
 H         -0.3720050759       -5.0128901422       -2.1069671282
 H         -0.5471573620       -3.2123662408       -2.1920977866
 H         -2.6175699833       -5.1798425794       -0.9619556944
 H         -2.7966118961       -3.3813602329       -1.0598532047
 H         -0.5452000396       -4.9166929367        0.3849151103
