  62
        -98.93175687
 C         -2.0659863941       -1.0799036439        0.3505151724
 C         -2.7325694990       -0.2093009162        1.2484983568
 C         -3.2161498039        1.0632454622        0.6936200493
 C         -2.9504099895        1.3568054898       -0.5919795911
 C         -3.4316383982        2.5761924497       -1.3256452358
 C         -4.9170921316        2.4109751361       -1.7058711758
 C         -5.8591922135        3.3935782770       -1.0098829136
 H         -5.7586023090        4.3739782626       -1.4800308441
 H         -6.8797432263        3.0467991180       -1.1849265238
 C         -5.6442399226        3.5721403231        0.4961380004
 H         -4.8021465803        4.2438375093        0.6694295457
 H         -6.5307004048        4.0768997160        0.8857648032
 C         -5.4180621373        2.2848099909        1.2993359111
 H         -5.8518473414        1.4281757324        0.7831038816
 H         -5.9433065858        2.3819084076        2.2515539479
 C         -3.9438093598        1.9873556019        1.6309925690
 H         -3.3916324695        2.9276048917        1.7164843649
 H         -3.8973308138        1.4900372964        2.6044711411
 H         -5.0312303046        2.5322893129       -2.7840731382
 H         -5.2180249724        1.3875531300       -1.4719701553
 H         -3.2898419630        3.4579294098       -0.7043411196
 H         -2.8164943904        2.6786684234       -2.2201064319
 O         -2.2578784490        0.5226461121       -1.4092821927
 C         -1.7871483738       -0.7066369911       -0.9656591332
 O         -1.1547818779       -1.3435390934       -1.8283624070
 H          0.3861758907       -0.6520161680        1.3898017392
 C          0.7764369200       -1.5112398065        0.8552671227
 C         -0.0874441385       -2.5467862979        0.5189424751
 C          0.4263782658       -3.6331264718       -0.1752028571
 C          1.7626228280       -3.6663643051       -0.5371891948
 C          2.6121000770       -2.6230942235       -0.2190887540
 C          2.1083844795       -1.5358210129        0.4808024629
 N          2.9685445625       -0.4498653886        0.7877954173
 S          3.2956371535        0.5756888388       -0.5197738784
 O          2.3148107871        1.6429846215       -0.5520145508
 O          3.4414168988       -0.2136782733       -1.7145075121
 C          4.8804096051        1.2330683733       -0.0350326895
 C          4.9662076396        2.4999512180        0.5074306699
 C          6.2051759490        2.9744922808        0.9097188184
 C          7.3296059411        2.1762124700        0.7670967530
 C          7.2271355044        0.9051583847        0.2211130909
 C          5.9917603167        0.4260669018       -0.1832356644
 H          5.8642121072       -0.5506626249       -0.6194651305
 H          8.1039724139        0.2878347299        0.1100129118
 H          8.2921254854        2.5477023422        1.0814249243
 H          6.2874273027        3.9629054022        1.3324831576
 H          4.0663921631        3.0877728585        0.5929337450
 H          2.5754679347        0.1298669553        1.5191546613
 H          3.6454792923       -2.6262527343       -0.5235731399
 H          2.1435172584       -4.5133619855       -1.0874468131
 H         -0.2258341234       -4.4413602985       -0.4628101133
 C         -1.5376349250       -2.3928291293        0.9037076658
 H         -1.5857359819       -2.2628967411        1.9983880664
 C         -2.3904780281       -3.6086565557        0.5772325849
 C         -3.8539899605       -3.4683643902        0.2860006979
 C         -2.9099536250       -3.8792375494       -0.8018378083
 H         -2.9408427477       -4.9031763372       -1.1448015259
 H         -2.6681473795       -3.1669968513       -1.5748236159
 H         -4.5308245158       -4.2065535533        0.6891831415
 H         -4.2638017542       -2.4690604345        0.2556892358
 H         -2.1012542218       -4.4740112221        1.1655500475
 O         -2.9048241452       -0.4815569440        2.4676125214
