  62
        -98.94379051
 C          1.4580798183        0.9229974253       -0.4796267652
 C          2.5326476281        1.1091574336        0.4273241480
 C          3.4340209266       -0.0318891999        0.6244177411
 C          3.1807060906       -1.1836796458       -0.0228532209
 C          4.0343142149       -2.4160176814        0.0519729652
 C          5.1035122491       -2.4224565643       -1.0495204736
 C          5.8925980222       -1.1170149058       -1.1507475602
 H          6.6365003397       -1.2470613128       -1.9396543841
 H          5.2192826290       -0.3186775439       -1.4708858731
 C          6.5930522136       -0.6965876770        0.1488273482
 H          6.6672132578       -1.5509010291        0.8226233585
 H          7.6111883540       -0.3809285775       -0.0882925704
 C          5.9244303073        0.4684382951        0.8810269478
 H          5.7617898811        1.2943731924        0.1841201787
 H          6.6110539438        0.8229483256        1.6543496149
 C          4.5902654495        0.1487366635        1.5674118545
 H          4.7054858920       -0.7291851833        2.2069385235
 H          4.3283050830        1.0019161727        2.2002479032
 H          5.7885943258       -3.2508519062       -0.8601128799
 H          4.6108919848       -2.6009779623       -2.0081138245
 H          4.5056565239       -2.4639078986        1.0319647975
 H          3.3882968304       -3.2873110367       -0.0711970369
 O          2.1314754221       -1.3377133497       -0.8656300467
 C          1.2374598432       -0.3009283301       -1.1138662568
 O          0.3325792807       -0.6098635499       -1.9099279832
 H         -0.8240378577       -0.0041097830        0.3632269870
 C         -1.1486303386        0.9293332326        0.7920256082
 C         -0.5529767232        2.1154611374        0.3885800785
 C         -0.9647657500        3.3049006181        0.9791562267
 C         -1.9570119772        3.3020887903        1.9434405491
 C         -2.5482562278        2.1176485387        2.3428651861
 C         -2.1302702945        0.9187795286        1.7724534174
 N         -2.6720653210       -0.2929803353        2.2071479825
 S         -2.6536955622       -1.7162067372        1.3410595590
 O         -3.4615060038       -2.6069441139        2.1483739882
 O         -1.3000873267       -2.1428017025        1.0915950595
 C         -3.5314710655       -1.3653763355       -0.1706981424
 C         -4.9033920467       -1.2195468873       -0.0718707012
 C         -5.6359147503       -0.9397128310       -1.2123666389
 C         -4.9871641618       -0.8144568309       -2.4322918202
 C         -3.6129530510       -0.9672919256       -2.5141790323
 C         -2.8700516416       -1.2414573935       -1.3744164491
 H         -1.7970711615       -1.3474245057       -1.4220520150
 H         -3.1016919567       -0.8730701186       -3.4587032208
 H         -5.5549371465       -0.5991283689       -3.3237216557
 H         -6.7057546457       -0.8230190731       -1.1490416595
 H         -5.3701354076       -1.3482289640        0.8910964310
 H         -3.4483087071       -0.2298247810        2.8468036108
 H         -3.3124722989        2.1133056703        3.1045611745
 H         -2.2694088202        4.2314018726        2.3947813968
 H         -0.4870008897        4.2310603872        0.6957678636
 C          0.5275509598        2.1078540533       -0.6655691168
 H          1.1582290645        2.9940413270       -0.4859172916
 C         -0.0334186240        2.2266554230       -2.0755016505
 C         -1.4571279304        1.9196731289       -2.4180034150
 C         -0.9772940713        3.3379917846       -2.4291501566
 H         -0.8517152604        3.8346112916       -3.3792561749
 H         -1.3131028946        3.9835610070       -1.6326580032
 H         -1.6485260276        1.4255593107       -3.3573752454
 H         -2.1139007267        1.6045312995       -1.6217175389
 H          0.7064190378        1.9622194304       -2.8240440593
 O          2.7300980291        2.1935097667        1.0409777874
