  62
        -98.93863429
 C          1.9040552604        1.3584673691        0.3367908203
 C          2.5825084905        0.7468891493       -0.7416383497
 C          3.7577697705       -0.0821418007       -0.4018993097
 C          4.1077136404       -0.2136522408        0.8911499203
 C          5.2324888904       -1.0291869009        1.4706537403
 C          4.9142774905       -2.5335436509        1.5087072301
 C          4.2367110106       -3.0813232407        0.2548063799
 H          3.9498162807       -4.1168467908        0.4571754398
 H          3.3167443206       -2.5231454908        0.0689999199
 C          5.0974257308       -3.0739759805       -1.0062606900
 H          5.9856489408       -3.6866943705       -0.8359261300
 H          4.5141220809       -3.5481771804       -1.7998354301
 C          5.5464598807       -1.6982828204       -1.5018635797
 H          5.9530328609       -1.8331065002       -2.5084957597
 H          6.3572789007       -1.3100128104       -0.8914271596
 C          4.4302375807       -0.6648558805       -1.6213311397
 H          4.8116820307        0.1936403896       -2.1875762695
 H          3.6231652008       -1.0791077904       -2.2366653998
 H          5.8415031805       -3.0789865009        1.6912863501
 H          4.2447271904       -2.7151768411        2.3530861300
 H          6.1499838904       -0.8391096907        0.9218359505
 H          5.3792106903       -0.6796531410        2.4950050004
 O          3.4073171202        0.3793240890        1.9008191604
 C          2.2988113102        1.1666773989        1.6591434004
 O          1.7536619401        1.6255267887        2.6845998804
 H         -0.1531336296       -0.1970429911        0.7417173699
 C         -0.6961166295        0.1742692690       -0.1193493901
 C         -0.3851194395        1.4323606191       -0.6216485799
 C         -1.1020728695        1.9033454592       -1.7132943599
 C         -2.0776380393        1.1178739592       -2.3039681801
 C         -2.3665871093       -0.1428391609       -1.8167776203
 C         -1.6697669094       -0.6151092410       -0.7110330403
 N         -1.9680383994       -1.8874027211       -0.1943410606
 S         -3.5796174194       -2.3056590712       -0.0248378608
 O         -3.6094855094       -3.2669471614        1.0552278591
 O         -4.0970380692       -2.7657197910       -1.2893515109
 C         -4.4073143195       -0.7988230613        0.4529334493
 C         -4.0020872697       -0.1764771515        1.6171833095
 C         -4.6088197798        1.0121807784        1.9881652996
 C         -5.6061866397        1.5555433585        1.1925760196
 C         -6.0059638596        0.9156464286        0.0299355894
 C         -5.4004624195       -0.2724043513       -0.3474260007
 H         -5.6776806393       -0.8009962712       -1.2448360808
 H         -6.7829849695        1.3396135687       -0.5852733406
 H         -6.0736746598        2.4830637084        1.4829964096
 H         -4.2977138699        1.5106687483        2.8923205297
 H         -3.2265385997       -0.6257107515        2.2172182895
 H         -1.4367796495       -2.1323356912        0.6277370695
 H         -3.1092548992       -0.7734147308       -2.2778706505
 H         -2.6178119793        1.4918698793       -3.1600284901
 H         -0.8902154095        2.8821778493       -2.1101925597
 C          0.6905127203        2.2312778091        0.0744576503
 H          0.3087437102        2.5224501689        1.0642430203
 C          1.0988572903        3.4814363492       -0.6766404894
 C          0.3352565102        4.7574443391       -0.4927470493
 C          1.7086578002        4.6155510791        0.0892813508
 H          2.5221958202        5.1640431292       -0.3612875290
 H          1.8042968901        4.4959004690        1.1589679808
 H          0.2070851903        5.4091872892       -1.3437576493
 H         -0.5044292498        4.7448864690        0.1853496506
 H          1.5079832605        3.2621962394       -1.6560676894
 O          2.2268902506        0.8766031094       -1.9420387597
