  62
        -98.94486733
 C          1.9401452157       -0.5435098336        0.6076182439
 C          3.0151577243       -1.3198042175        0.1107176576
 C          4.3488701914       -0.7235625324        0.2403723978
 C          4.4863034191        0.4834519104        0.8188635222
 C          5.7826817190        1.2128842653        1.0464160437
 C          6.2708405104        2.0135813469       -0.1686979674
 C          6.8159448948        1.1739648328       -1.3247293309
 H          7.3193039428        1.8599300117       -2.0089466749
 H          7.5686701889        0.4819127983       -0.9458894752
 C          5.7445783757        0.3977537247       -2.1032469516
 H          4.7597874733        0.8157015771       -1.8814924025
 H          5.9111327810        0.5232614391       -3.1754903586
 C          5.7201855515       -1.1045183485       -1.8211606060
 H          6.6543413612       -1.5565677793       -2.1616384991
 H          4.9026982297       -1.5479750916       -2.3951990797
 C          5.5123762422       -1.4660609479       -0.3445877811
 H          5.2910850050       -2.5342162808       -0.2807308190
 H          6.4191777982       -1.2619566177        0.2241593187
 H          5.4497317014        2.6388325850       -0.5271210202
 H          7.0667749554        2.6770974262        0.1773146107
 H          5.6060461668        1.9094514895        1.8688537897
 H          6.5536712061        0.5044313547        1.3507470813
 O          3.4287881506        1.1924216558        1.2960571847
 C          2.1309691757        0.7108676758        1.1868524478
 O          1.2625587351        1.4793288088        1.6415878258
 O          2.8661875833       -2.4552289448       -0.4147019415
 C          0.5297357598       -1.0970717941        0.4944227764
 C         -0.2983184250       -0.1754989831       -0.3652290849
 C          0.0910426554        0.0186991921       -1.6893639435
 C         -0.6034799662        0.8834488473       -2.5111057428
 C         -1.7082135749        1.5673882501       -2.0328614604
 C         -2.1066172654        1.3808004826       -0.7152004300
 C         -1.4068498801        0.5068809015        0.1081842537
 H         -1.7260810797        0.3993988163        1.1304613206
 N         -3.2079062144        2.0842035175       -0.2029342323
 S         -4.3589888501        1.3307875939        0.7433295247
 O         -5.4581138642        2.2697799284        0.7871327555
 O         -3.8000864315        0.9415901763        2.0119897596
 C         -4.8336276452       -0.1079495721       -0.1975744068
 C         -5.7833425500        0.0424563692       -1.1896876420
 C         -6.1182629294       -1.0521614288       -1.9696283174
 C         -5.4938850163       -2.2711193794       -1.7513448330
 C         -4.5422682699       -2.4051593867       -0.7523185742
 C         -4.2053301161       -1.3145984253        0.0342684487
 H         -3.4734536712       -1.3826856562        0.8218363646
 H         -4.0590786466       -3.3539931380       -0.5817060336
 H         -5.7520893591       -3.1228259721       -2.3606744818
 H         -6.8614110024       -0.9520534063       -2.7442283116
 H         -6.2517399033        1.0048432196       -1.3180788104
 H         -3.6440029484        2.7127406908       -0.8614682787
 H         -2.2483992915        2.2512470393       -2.6698645807
 H         -0.2859672602        1.0272955311       -3.5328304980
 H          0.9572053888       -0.5129154862       -2.0592122548
 H          0.6389996513       -2.0555030971       -0.0338855287
 C         -0.0543774370       -1.3632954922        1.8645120838
 C         -1.1128025528       -2.4101363289        2.0356966854
 C          0.2725368559       -2.6529460908        2.5535502401
 H          0.4370784490       -2.6394202263        3.6205542257
 H          0.9014172664       -3.3532058901        2.0233697959
 H         -1.9039925034       -2.2301271875        2.7487493266
 H         -1.4201108733       -2.9548650185        1.1555401607
 H         -0.1117678780       -0.4736650710        2.4819305194
