  62
        -98.93733607
 C          2.3797022104        1.1201262704        0.3389285787
 C          3.0722941204        0.2381175811        1.2080020394
 C          4.4247931003       -0.1582967094        0.7993583096
 C          4.9349489202        0.3394571095       -0.3417149609
 C          6.2776850601       -0.0164261112       -0.9093788207
 C          6.1746142399       -1.2094755321       -1.8699994196
 C          5.3931986698       -2.3944338415       -1.3022100384
 H          4.3489087399       -2.1026394813       -1.1683517185
 H          5.4113418897       -3.1860832822       -2.0543394877
 C          5.9402740199       -2.9384953003        0.0249294321
 H          6.9654652900       -2.5965195703        0.1714374816
 H          5.9667781698       -4.0289377304       -0.0279886469
 C          5.1047928501       -2.5732490091        1.2534914618
 H          4.0571288300       -2.8285897691        1.0741583522
 H          5.4504908301       -3.1821204483        2.0932159823
 C          5.1731582203       -1.1054803587        1.6940950504
 H          4.6968085904       -1.0300697277        2.6760829104
 H          6.2164414803       -0.7990892187        1.7942642800
 H          5.6752517998       -0.8764421629       -2.7826369198
 H          7.1846434298       -1.5293844624       -2.1323154494
 H          6.9604171402       -0.2496746705       -0.0946761206
 H          6.6598661701        0.8471801982       -1.4561535816
 O          4.2525569102        1.1951822888       -1.1406293116
 C          2.9540522903        1.5948001292       -0.8416858118
 O          2.4586945003        2.3518120584       -1.6941310525
 O          2.5769428905       -0.1931426278        2.2852812399
 C          0.9789742005        1.5199348009        0.7648992085
 C         -0.0580219797        0.5877041605        0.1953149595
 C         -0.0974905099        0.2812589292       -1.1615044903
 C         -1.0806647100       -0.5506659512       -1.6665191994
 C         -2.0474846700       -1.0864185003       -0.8323878588
 C         -2.0109552198       -0.7924802890        0.5228370010
 C         -1.0185564497        0.0334560013        1.0288425301
 H         -0.9968152695        0.2526984023        2.0883429499
 N         -3.0381862898       -1.3040662881        1.3614176416
 S         -4.3770910397       -0.2739486480        1.3875335608
 O         -3.9633417495        1.1067363121        1.5157582894
 O         -5.2421769296       -0.7747800669        2.4319758413
 C         -5.1088765099       -0.5466495994       -0.2080761989
 C         -4.8936317199        0.3723980596       -1.2159996598
 C         -5.4313978301        0.1269920185       -2.4696093995
 C         -6.1692630302       -1.0261860516       -2.6904512183
 C         -6.3791446002       -1.9371759206       -1.6656088175
 C         -5.8427679400       -1.6991456195       -0.4103027177
 H         -5.9818393600       -2.3761682187        0.4162050929
 H         -6.9555989503       -2.8310098007       -1.8419363966
 H         -6.5840103903       -1.2152806125       -3.6680338981
 H         -5.2686178401        0.8333962878       -3.2676342002
 H         -4.3122366998        1.2543238898       -0.9994439307
 H         -2.7276119397       -1.4376568473        2.3152295716
 H         -2.8156067901       -1.7372010406       -1.2170490281
 H         -1.0977190202       -0.7794357522       -2.7210158192
 H          0.6481693401        0.7101511985       -1.8144099307
 H          0.9733304906        1.3833205719        1.8587553286
 C          0.6502000406        2.9827437407        0.5010569171
 C         -0.2671979095        3.4520282698       -0.5832963232
 C         -0.7066892693        3.5238556511        0.8464863868
 H         -0.7707478492        4.4910536916        1.3221196059
 H         -1.4633232394        2.8242889815        1.1740623175
 H         -0.0047771495        4.3638936193       -1.0972210541
 H         -0.7266175397        2.7134051292       -1.2202747625
 H          1.4971106207        3.6262277108        0.7191017264
