  62
        -98.94213511
 C         -1.3970899381       -1.2347608321       -0.0310394525
 C         -2.4794406543       -0.8537104539        0.7934065782
 C         -3.0965807236        0.4427856900        0.4878914457
 C         -2.5960966931        1.1998788088       -0.5053703153
 C         -3.0595376127        2.5752926041       -0.9077718348
 C         -4.4880376024        2.6794935911       -1.4765751967
 C         -5.5593907394        3.0303617568       -0.4367626143
 H         -5.0821888470        3.5490011426        0.3957821004
 H         -6.2640455824        3.7351479997       -0.8828268483
 C         -6.3816197244        1.8534855716        0.0969174674
 H         -7.1315505376        1.5759959721       -0.6472243272
 H         -6.9128503584        2.1940610717        0.9882400864
 C         -5.5921649381        0.5911404693        0.4435525078
 H         -5.3077069594        0.0716304498       -0.4744847255
 H         -6.2530494948       -0.0851667194        0.9893182196
 C         -4.3153032602        0.8370797182        1.2709194359
 H         -4.2497783801        1.8789920433        1.5819464611
 H         -4.3248203782        0.2122512830        2.1665995126
 H         -4.7430252282        1.7526655277       -1.9896553193
 H         -4.4706697782        3.4712307085       -2.2271850696
 H         -2.3469958848        2.9097906816       -1.6647466978
 H         -2.9594032923        3.2395816587       -0.0459329170
 O         -1.5405211376        0.8035191842       -1.2659403168
 C         -0.9139518080       -0.4102816181       -1.0461388342
 O          0.0420711811       -0.6433012549       -1.8118605470
 O         -2.9033170536       -1.5603091910        1.7495157261
 C         -0.6974703162       -2.5560049038        0.2252901621
 C          0.7766744920       -2.3369427506        0.4615126830
 C          1.7571563978       -3.2030310908       -0.0077421702
 C          3.0964259766       -2.9456533955        0.2297255780
 C          3.4879316410       -1.8115532020        0.9172406052
 C          2.5143041795       -0.9444002473        1.3979879322
 C          1.1740257493       -1.2252225448        1.1934493813
 H          0.4331104980       -0.5382139663        1.5762729728
 N          2.8544457237        0.2458674145        2.0787857811
 S          2.4818955514        1.6716128697        1.2747388880
 O          3.0155178540        2.7256841394        2.1118790779
 O          1.0694318300        1.7284840356        1.0014019667
 C          3.4381866500        1.5704958101       -0.2282363471
 C          4.6870559972        2.1629356615       -0.2483211729
 C          5.4819595595        2.0188725644       -1.3732539736
 C          5.0212579924        1.2760510745       -2.4502576588
 C          3.7679353216        0.6855062924       -2.4118882478
 C          2.9628936706        0.8290572895       -1.2912033561
 H          1.9814325150        0.3815909128       -1.2472087947
 H          3.4016217078        0.1068262703       -3.2446723810
 H          5.6407346229        1.1571573417       -3.3252268547
 H          6.4556210082        2.4807156929       -1.4052847791
 H          5.0003150772        2.7318880386        0.6123086575
 H          3.8237409778        0.2813294518        2.3663337797
 H          4.5330418833       -1.5950121947        1.0800246587
 H          3.8453101377       -3.6277683029       -0.1423429081
 H          1.4715632000       -4.0797215817       -0.5657906021
 H         -1.1424311891       -2.9489870364        1.1522826155
 C         -0.9837412859       -3.5275971196       -0.9024492125
 C         -1.0824897728       -4.9991178113       -0.6345110548
 C         -2.3173376115       -4.2095618999       -0.9448489612
 H         -2.7955276809       -4.3491930651       -1.9027392439
 H         -3.0062188021       -3.9951501803       -0.1407416244
 H         -0.7152546718       -5.6851670177       -1.3828661979
 H         -0.9398798828       -5.3336071900        0.3818839294
 H         -0.5573955340       -3.2032757419       -1.8453401264
