  62
        -98.94779743
 C          1.0333589708        0.9296998007        0.7199703186
 C          1.7228173404        0.8476049403       -0.5133855516
 C          2.3949689001       -0.4289565599       -0.7830183015
 C          2.2641751402       -1.4504696597        0.0814065287
 C          2.8513692200       -2.8270767498       -0.0778175111
 C          4.3132627301       -2.9426391799        0.3760578884
 C          5.3373962899       -2.2796022103       -0.5456779920
 H          6.3236769900       -2.6241765704       -0.2285755123
 H          5.1833763795       -2.6281370905       -1.5674133619
 C          5.3171604302       -0.7450629403       -0.5148402624
 H          6.3396873002       -0.3686734104       -0.4391110728
 H          4.7827766105       -0.4055072400        0.3752196377
 C          4.6853127799       -0.0956988105       -1.7461281623
 H          4.6884728401        0.9878285896       -1.6032482426
 H          5.2868443396       -0.3207099608       -2.6296701525
 C          3.2393722897       -0.5324084703       -2.0164456618
 H          2.8084016596        0.1359382196       -2.7664146818
 H          3.2173384394       -1.5496168604       -2.4082560515
 H          4.4006152205       -2.5211209797        1.3799860683
 H          4.5499898599       -4.0072255499        0.4397865786
 H          2.7621577396       -3.1417528500       -1.1184553910
 H          2.2467613101       -3.4972120195        0.5376868592
 O          1.5383411606       -1.3521289693        1.2273162689
 C          0.9152297009       -0.1632193991        1.5767733989
 O          0.2906278212       -0.2095215988        2.6560971391
 O          1.7792548003        1.7897047501       -1.3467969718
 C          0.2760229011        2.1955265909        1.0842857285
 C         -0.7989917392        2.4175366008        0.0472875088
 C         -1.0227773392        3.6239166507       -0.6013155714
 C         -1.9970547595        3.7162655606       -1.5812613611
 C         -2.7508189698        2.6148330307       -1.9426409406
 C         -2.5443361597        1.4061560508       -1.2859930904
 C         -1.5956520494        1.3278934109       -0.2818428607
 H         -1.4376674794        0.3893365010        0.2290694495
 N         -3.2932791200        0.2642117308       -1.6048502899
 S         -2.6064411502       -1.2541002292       -1.4553817998
 O         -1.2021497403       -1.2582726295       -1.7956197302
 O         -3.4528544806       -2.1044137393       -2.2682754293
 C         -2.8432600897       -1.6806060288        0.2558894304
 C         -1.8298181196       -2.3253061888        0.9354816402
 C         -2.0245873693       -2.6725802685        2.2623920604
 C         -3.2279149890       -2.3740401581        2.8815985007
 C         -4.2402224391       -1.7333247181        2.1831097209
 C         -4.0507512295       -1.3831176485        0.8562435107
 H         -4.8115898396       -0.8801806485        0.2830993008
 H         -5.1737303090       -1.5021030579        2.6704975011
 H         -3.3733995287       -2.6396638679        3.9168045208
 H         -1.2303794592       -3.1576515085        2.8065934902
 H         -0.9004636098       -2.5218289491        0.4226681600
 H         -3.8803740103        0.3437274907       -2.4221451397
 H         -3.4884334900        2.6837508506       -2.7274856704
 H         -2.1582468095        4.6570648506       -2.0854998013
 H         -0.4259080390        4.4861550207       -0.3534142618
 H         -0.2134543486        1.9915522312        2.0479002887
 C          1.2194976514        3.3669616008        1.2495158780
 C          0.8519263518        4.5062212010        2.1509144878
 C          1.9285646118        3.5465501310        2.5570695777
 H          2.9542107019        3.8835288808        2.5452546873
 H          1.7123205119        2.8340564212        3.3399746379
 H          1.1408174119        5.5057412509        1.8631112275
 H         -0.0954155780        4.4505189813        2.6653050981
 H          1.7747161511        3.5851861005        0.3447290577
