  62
        -98.95212138
 C          2.3576181662        0.3321308036        0.0438719069
 C          1.5172970188       -0.2352070170       -0.9417998964
 C          1.5139793943       -1.7012583120       -1.0210968973
 C          2.2853812561       -2.4063659029       -0.1739723859
 C          2.3934124479       -3.9035794312       -0.1535373731
 C          1.3953904619       -4.5408217263        0.8213860125
 C         -0.0414736103       -4.0461326242        0.6544916054
 H         -0.6620873284       -4.6119391301        1.3538427525
 H         -0.1046875964       -2.9982805099        0.9573614131
 C         -0.6077219955       -4.1943661539       -0.7645234176
 H         -1.6262234114       -4.5818537249       -0.6915752014
 H         -0.0213558513       -4.9226157397       -1.3270186003
 C         -0.6866345867       -2.8813199960       -1.5458225480
 H         -1.3412507976       -3.0340924755       -2.4083441012
 H         -1.1468157029       -2.1196375653       -0.9111932008
 C          0.6476294403       -2.3361837859       -2.0721112202
 H          1.1899455423       -3.1296224719       -2.5915814557
 H          0.4239572762       -1.5438550557       -2.7924801516
 H          1.7153006425       -4.3186360888        1.8422074734
 H          1.4269664338       -5.6238598575        0.6838392889
 H          2.2244857495       -4.2838947280       -1.1594358627
 H          3.4063188050       -4.1659934876        0.1583855442
 O          3.0612213514       -1.8274897374        0.7789713649
 C          3.1032183693       -0.4503848096        0.9230709719
 O          3.8373394628       -0.0497086713        1.8510176024
 H          0.4402906668        0.8629009220        1.6520891606
 C          0.1452675923        1.7690416765        1.1429836687
 C          1.0568586945        2.4292892823        0.3293980171
 C          0.6543602935        3.6013203791       -0.2994963830
 C         -0.6360490545        4.0763187701       -0.1398327815
 C         -1.5560152738        3.3845789430        0.6266984229
 C         -1.1591914324        2.2173791137        1.2687000073
 N         -2.0612123266        1.4604068105        2.0456858748
 S         -2.3867923132       -0.1014076830        1.5292501638
 O         -3.3627716076       -0.6101585470        2.4695508567
 O         -1.1608121525       -0.8465051859        1.4172859014
 C         -3.1640539468        0.1080547644       -0.0634939331
 C         -2.3937815851        0.4284058980       -1.1636459265
 C         -3.0287713116        0.6477844666       -2.3772059555
 C         -4.4078413153        0.5478707092       -2.4707386925
 C         -5.1662059205        0.2269839359       -1.3546293697
 C         -4.5406543507        0.0093753386       -0.1382456278
 H         -5.0865012012       -0.2454851459        0.7559029828
 H         -6.2389038648        0.1476205933       -1.4280455309
 H         -4.8931395793        0.7203734664       -3.4185018813
 H         -2.4303575665        0.8963779659       -3.2389755857
 H         -1.3197814258        0.4966118165       -1.0800351070
 H         -2.9351890416        1.9343993255        2.2297203640
 H         -2.5708849282        3.7388724224        0.7280902968
 H         -0.9344492574        4.9874491512       -0.6354511344
 H          1.3502882765        4.1402985893       -0.9213776019
 C          2.4394597728        1.8418635293        0.1831277605
 H          2.9984339724        2.0344417804        1.1110133355
 C          3.2140348707        2.4221874782       -0.9838625653
 C          4.0490721718        3.6538005847       -0.8065935286
 C          4.7086603339        2.3195731161       -0.9794930775
 H          5.2144324429        2.1074205217       -1.9094670627
 H          5.1681397358        1.8565197115       -0.1180226614
 H          4.1071079710        4.3598015215       -1.6213157446
 H          4.0739282347        4.1054481326        0.1736145747
 H          2.7062159882        2.2772806016       -1.9306909720
 O          0.8159315735        0.4534558644       -1.7298011828
