  62
        -98.92994330
 C         -2.6171649180       -0.8903458932        0.5985485281
 C         -2.8201821585        0.2988970278        1.3451033820
 C         -3.7987211625        1.2514052691        0.8084261094
 C         -4.4320816108        0.9600011645       -0.3420868917
 C         -5.4079133068        1.8637381094       -1.0371128066
 C         -4.6969746791        2.7736284092       -2.0487305551
 C         -3.4706888538        3.4891734503       -1.4817442785
 H         -2.7023420361        2.7483714305       -1.2477294169
 H         -3.0708644620        4.1255485487       -2.2742241058
 C         -3.7516713322        4.3401750093       -0.2352791637
 H         -3.2490065980        5.3029782800       -0.3485101319
 H         -4.8208199113        4.5403904122       -0.1569343723
 C         -3.2535225137        3.7293133478        1.0758623851
 H         -2.2049982358        3.4396779449        0.9697064142
 H         -3.3039727161        4.4991864230        1.8504583522
 C         -4.0390009423        2.5146921861        1.5864377390
 H         -5.1044519213        2.7513198831        1.6162527963
 H         -3.7040493693        2.3072970824        2.6069213169
 H         -4.3751714936        2.1636165930       -2.8960189744
 H         -5.4145107896        3.5108051876       -2.4136566517
 H         -6.1334855018        1.2441600834       -1.5666717762
 H         -5.9303299806        2.4650028235       -0.2955352594
 O         -4.2110891554       -0.1839073803       -1.0339707252
 C         -3.2944889600       -1.1347748343       -0.5979146484
 O         -3.1964684665       -2.1124317740       -1.3578963554
 O         -2.2058020840        0.5535934382        2.4172924955
 C         -1.5863564503       -1.8737793617        1.1405596935
 C         -0.4453121143       -1.9895680044        0.1602451985
 C         -0.3664213147       -2.8972191664       -0.8893199502
 C          0.7113288605       -2.8744780293       -1.7588142786
 C          1.7266419584       -1.9470920960       -1.6194325818
 C          1.6562037071       -1.0248630593       -0.5835737162
 C          0.5851598817       -1.0632414840        0.2974312304
 H          0.5339891247       -0.3402899657        1.1021364287
 N          2.6566171147       -0.0440426725       -0.4450623534
 S          4.2627604144       -0.5319941665       -0.6336945032
 O          4.5490374497       -0.6270775882       -2.0431922936
 O          4.5147232500       -1.7257827125        0.1425534211
 C          5.1227259487        0.8624973893        0.0652860517
 C          5.2961892003        1.9916557441       -0.7124810098
 C          5.9418725096        3.0885493688       -0.1646953846
 C          6.3999739820        3.0385989991        1.1436668314
 C          6.2193090607        1.8978720000        1.9112436161
 C          5.5730356019        0.7975350448        1.3700762397
 H          5.4176133189       -0.1126210248        1.9270403182
 H          6.5789671107        1.8611610316        2.9269628178
 H          6.9033289901        3.8933497498        1.5672198071
 H          6.0863992864        3.9766661580       -0.7584870025
 H          4.9316972444        1.9817296338       -1.7264122954
 H          2.5421547588        0.4943776119        0.4031019553
 H          2.5671042706       -1.9252503768       -2.2942036955
 H          0.7549359837       -3.5906311158       -2.5660322538
 H         -1.1578811854       -3.6047652678       -1.0582917089
 H         -1.1784296745       -1.3528379599        2.0211799949
 C         -2.2250693073       -3.1363084528        1.7044180894
 C         -2.8654984573       -4.2396528857        0.9190663945
 C         -1.5813251471       -4.4892135067        1.6502980259
 H         -1.6100912866       -5.1043685467        2.5374313648
 H         -0.6753507682       -4.5925234939        1.0736455382
 H         -3.7724132820       -4.6683293211        1.3223754725
 H         -2.8719758757       -4.1741680312       -0.1556498474
 H         -2.7334691421       -2.8947140964        2.6352142396
