  62
        -98.93764440
 C          1.5801496572        1.3556471829        0.5131162494
 C          1.5414545490        0.3326472434       -0.4674296765
 C          2.4798257734       -0.7830073753       -0.2659028107
 C          3.2936399078       -0.8025741816        0.8035262982
 C          4.2829536941       -1.8812049481        1.1514004880
 C          5.6351267740       -1.7386901215        0.4392945792
 C          5.6227506775       -2.0707926376       -1.0535012653
 H          5.1716314731       -3.0522453713       -1.2033917859
 H          6.6640241969       -2.1395105783       -1.3747086005
 C          4.9050513882       -1.0327489188       -1.9276424389
 H          5.5163633650       -0.8111182233       -2.8054246260
 H          4.7970692742       -0.0992529886       -1.3704612509
 C          3.5302064779       -1.4702617260       -2.4330998222
 H          3.6413449733       -2.3258748903       -3.1030957876
 H          3.0992433721       -0.6468247328       -3.0083473924
 C          2.5384185985       -1.8446411484       -1.3239418918
 H          2.8111362011       -2.8053497511       -0.8872502701
 H          1.5451870377       -1.9328546402       -1.7713963511
 H          6.3368815686       -2.4142798269        0.9337820684
 H          5.9999465520       -0.7188965708        0.5823842327
 H          3.8560277047       -2.8596230317        0.9291930747
 H          4.4526674888       -1.8113243481        2.2279537985
 O          3.2924618156        0.1897907663        1.7310274648
 C          2.4588695571        1.2846562713        1.6026202873
 O          2.5876355588        2.1242157188        2.5163350441
 O          0.7796191786        0.3113357508       -1.4675150244
 C          0.6836002770        2.5929667895        0.4997652106
 C         -0.7630024623        2.1808053459        0.6124078208
 C         -1.3694113196        2.2160611516        1.8667374656
 C         -2.6605242747        1.7559397103        2.0512593192
 C         -3.3767594435        1.2262809718        0.9920726292
 C         -2.7808149709        1.1810066966       -0.2598821956
 C         -1.4984546630        1.6768651264       -0.4494227404
 H         -1.0562755303        1.6018418256       -1.4274803766
 N         -3.4647941246        0.5781584305       -1.3340408080
 S         -4.0707514980       -0.9525822446       -1.0223403005
 O         -4.0181846396       -1.6585234561       -2.2838077627
 O         -5.3829021444       -0.8312731983       -0.4344208583
 C         -2.9611530507       -1.6962199363        0.1661761299
 C         -1.6054013101       -1.7191412368       -0.0960219033
 C         -0.7534518620       -2.2825564937        0.8403222717
 C         -1.2655613071       -2.8181030645        2.0116498743
 C         -2.6297145189       -2.7948430605        2.2562551458
 C         -3.4861473636       -2.2255766084        1.3279314549
 H         -4.5517210669       -2.1745982892        1.4828338578
 H         -3.0261763581       -3.2116484665        3.1680171262
 H         -0.5947276891       -3.2518872546        2.7364665803
 H          0.3091284358       -2.2852737797        0.6519520006
 H         -1.2137639502       -1.2888587902       -1.0045459179
 H         -2.9235978417        0.5691860644       -2.1876121167
 H         -4.3746235657        0.8374989434        1.1171331774
 H         -3.1091591935        1.7964862572        3.0319014272
 H         -0.8075511499        2.5954792217        2.7085010396
 H          0.9285543499        3.1029897095        1.4429309903
 C          1.0641077672        3.5891161163       -0.5913454397
 C          0.9350871992        3.3734625502       -2.0687636899
 C          0.0571365763        4.3724128938       -1.3795134523
 H          0.2446395657        5.4222905393       -1.5487722710
 H         -0.9855989162        4.1283772403       -1.2461363144
 H          1.7367217873        3.7431416395       -2.6932912258
 H          0.5170497422        2.4471578845       -2.4242544831
 H          1.9568203791        4.1334546114       -0.2928652695
