  62
        -98.94692421
 C         -1.2644165007       -0.7463996003        0.6160244291
 C         -2.1182369206       -0.7086831803       -0.5120644510
 C         -2.8732407305        0.5366630997       -0.6980955212
 C         -2.6647808705        1.5771602398        0.1280659088
 C         -3.3357186504        2.9215893898        0.0467063886
 C         -4.7132422904        2.9743249600        0.7221317485
 C         -5.8325068204        2.2470680500       -0.0241781615
 H         -6.7739042804        2.5469677701        0.4403651084
 H         -5.8569409903        2.5877788999       -1.0597368716
 C         -5.7289005805        0.7160070000        0.0139102186
 H         -5.0469153806        0.4170171500        0.8130922387
 H         -6.7067379606        0.2907470701        0.2504970685
 C         -5.2630488905        0.0797276899       -1.2957110813
 H         -5.1911250505       -1.0003854001       -1.1456837512
 H         -6.0041728204        0.2630378799       -2.0767743314
 C         -3.8990887104        0.5796954097       -1.7901679812
 H         -3.9887343903        1.5901221297       -2.1891850213
 H         -3.5577132004       -0.0822305803       -2.5900888512
 H         -4.6225107205        2.5658428900        1.7312339086
 H         -4.9903435404        4.0271195700        0.8131081684
 H         -3.4267321003        3.2215475898       -0.9978283314
 H         -2.6741800704        3.6292178998        0.5515362986
 O         -1.7756311506        1.5282153998        1.1548755389
 C         -1.0642731807        0.3705775498        1.4262316490
 O         -0.2917940207        0.4632565698        2.4030465391
 O         -2.2510997206       -1.6623797003       -1.3232082909
 C         -0.4455222408       -1.9924830103        0.9131679292
 C          0.5251672293       -2.2040239004       -0.2241449707
 C          0.6177485393       -3.3698702505       -0.9702683906
 C          1.4955388894       -3.4398892206       -2.0395623805
 C          2.2876396295       -2.3609909507       -2.3844351305
 C          2.2155750795       -1.1934598007       -1.6289473406
 C          1.3534243594       -1.1361440605       -0.5480662707
 H          1.2814462494       -0.2285582905        0.0296955092
 N          3.0247798496       -0.0962800807       -1.9353175806
 S          2.8370188596        1.4293806193       -1.2941969008
 O          1.4511824396        1.8224684194       -1.1843982509
 O          3.6635226198        2.2596283292       -2.1457845507
 C          3.6124587295        1.2958079794        0.3031857293
 C          2.8853539494        1.4380574695        1.4666232292
 C          3.5366520093        1.3042003196        2.6837665293
 C          4.8957007493        1.0363343295        2.7169565794
 C          5.6149660294        0.9032632593        1.5381115495
 C          4.9695333495        1.0330662893        0.3202367394
 H          5.4912653295        0.9461778492       -0.6182636805
 H          6.6727015893        0.6970192193        1.5664867696
 H          5.3954261492        0.9317514795        3.6671126095
 H          2.9671012192        1.4037024597        3.5940904993
 H          1.8248797594        1.6359771996        1.4209683991
 H          3.5054862797       -0.1189781708       -2.8202921306
 H          2.9534944895       -2.4140140908       -3.2318751305
 H          1.5531329593       -4.3466346307       -2.6225852004
 H         -0.0069194408       -4.2142966005       -0.7305631006
 H          0.1353867692       -1.7660042203        1.8190459893
 C         -1.3437453909       -3.1786247402        1.1880756092
 C         -0.8460950610       -4.3155786002        2.0274345794
 C         -1.8792592210       -3.3773601601        2.5731049392
 H         -2.8924595510       -3.7323941700        2.6877127292
 H         -1.5788585610       -2.6658165300        3.3287363092
 H         -1.1513526111       -5.3186497502        1.7708908194
 H          0.1577310489       -4.2453781402        2.4180252094
 H         -2.0063198508       -3.4021837902        0.3604141192
