  62
        -98.93887070
 C         -1.8825090907       -0.4220426603       -0.0409362594
 C         -2.9610616008       -0.6249346800        0.8533543005
 C         -4.2041435308        0.1254132598        0.5927491300
 C         -4.2370631907        0.9766334993       -0.4493992203
 C         -5.3888830407        1.8186249390       -0.9297353008
 C         -6.4469166105        0.9982267686       -1.6853065707
 C         -6.8145076105       -0.3323708611       -1.0338435502
 H         -7.4848400304       -0.8617501715       -1.7161363500
 H         -5.9142620105       -0.9403260510       -0.9280359098
 C         -7.5156253407       -0.2231238806        0.3180443697
 H         -7.7983824407       -1.2350648405        0.6191515501
 H         -8.4341398508        0.3559916292        0.1993331493
 C         -6.6937056510        0.3962080199        1.4504788996
 H         -7.2183646211        0.1838185903        2.3866775196
 H         -6.6529499210        1.4783783399        1.3597515291
 C         -5.2865451709       -0.1729360599        1.6021547700
 H         -4.8829686911        0.1502382505        2.5694050099
 H         -5.3466557908       -1.2653241299        1.6668639005
 H         -7.3426206606        1.6113828285       -1.7980893410
 H         -6.0573634404        0.7834261282       -2.6834426405
 H         -5.8348252709        2.3524242193       -0.0957946211
 H         -4.9706816207        2.5607780488       -1.6134932111
 O         -3.1661898906        1.1565461991       -1.2731482202
 C         -1.9728555306        0.4793532893       -1.1006603598
 O         -1.1019726405        0.7643437790       -1.9457130998
 O         -2.8967029609       -1.4128078796        1.8349342209
 C         -0.5915726506       -1.1811830201        0.2173621111
 C          0.4428934292       -0.2086670098        0.7259263709
 C          0.4953417990        0.0928388308        2.0835479707
 C          1.4156387188        1.0022514211        2.5719187005
 C          2.2994802889        1.6355485408        1.7152209204
 C          2.2467813791        1.3482247802        0.3583124405
 C          1.3335347393        0.4234804999       -0.1286335293
 H          1.2942157294        0.2216130895       -1.1874111992
 N          3.1500152892        1.9880281599       -0.5198547197
 S          4.7637813392        1.5993685802       -0.2907667193
 O          5.2204742490        2.1950008607        0.9390641106
 O          5.4456038993        2.0149769197       -1.4953216493
 C          4.7691302493       -0.1783005498       -0.1504710485
 C          4.6305459692       -0.7589980693        1.0940261217
 C          4.5410692293       -2.1390245692        1.1810891623
 C          4.5902466895       -2.9094621297        0.0298209126
 C          4.7335214697       -2.3105431302       -1.2124192276
 C          4.8164629096       -0.9310152803       -1.3068579782
 H          4.9307143797       -0.4258037406       -2.2527261284
 H          4.7766769098       -2.9130376006       -2.1057150774
 H          4.5171066396       -3.9833236097        0.1002259330
 H          4.4295800592       -2.6070959988        2.1458867024
 H          4.6008755890       -0.1258010889        1.9653043714
 H          2.9044518193        1.8567485895       -1.4913123596
 H          3.0308651088        2.3412724510        2.0751176102
 H          1.4450182486        1.2228236015        3.6282511904
 H         -0.2036332911       -0.3904799990        2.7515960408
 H         -0.8272376607       -1.8803613098        1.0306205114
 C         -0.1258045504       -1.9705975205       -0.9888155085
 C          0.9921554997       -2.9552980004       -0.8234048979
 C         -0.4055371003       -3.4404475206       -1.0606979379
 H         -0.6473775301       -3.8708267910       -2.0209659278
 H         -0.9386428503       -3.8891564503       -0.2355106178
 H          1.7151003098       -3.0529386807       -1.6184161178
 H          1.4105964395       -3.0680107699        0.1651514622
 H         -0.1763066103       -1.4126714909       -1.9155809087
