  62
        -98.94677033
 C          1.2237767462        1.2144071260        0.0818592248
 C          1.8849685315        0.5843690920        1.1624466496
 C          2.6014177384       -0.6570577742        0.8428185897
 C          2.5563187981       -1.1355596222       -0.4141808510
 C          3.3026694859       -2.3462455985       -0.8936193588
 C          4.6882902672       -1.9629089253       -1.4327660015
 C          5.4924918481       -1.0666554103       -0.4911051680
 H          6.4624781279       -0.8887751195       -0.9604251696
 H          4.9943837707       -0.0981070218       -0.4069656730
 C          5.7040695950       -1.6497946657        0.9130843621
 H          6.7472467231       -1.5023551454        1.2006169404
 H          5.5218064689       -2.7250247130        0.9000952611
 C          4.8471031118       -1.0036863939        2.0032908838
 H          5.2245673187       -1.3356239862        2.9742907182
 H          4.9610740996        0.0826266269        1.9628868495
 C          3.3495000588       -1.3329315637        1.9573909055
 H          3.2127701155       -2.4154336818        1.9152032251
 H          2.9015663043       -0.9666810359        2.8860180393
 H          5.2474911594       -2.8792538416       -1.6303962483
 H          4.5576182690       -1.4334638294       -2.3792112972
 H          2.7307486255       -2.8132208853       -1.6963345356
 H          3.4061234328       -3.0540790111       -0.0735421368
 O          1.8614751538       -0.5344906092       -1.4109767121
 C          1.1708947042        0.6480773217       -1.1927853225
 O          0.5669285798        1.0802014410       -2.1899683350
 O          1.8729271269        1.0369864367        2.3403355022
 C          0.4797257214        2.5147016310        0.3364902734
 C         -0.9970499785        2.2677312272        0.1574959201
 C         -1.7913621945        2.9277696815       -0.7691344034
 C         -3.1295006935        2.5969210606       -0.9064388018
 C         -3.7034927564        1.6128603235       -0.1228036860
 C         -2.9181752362        0.9556248998        0.8159110897
 C         -1.5799848279        1.2846596466        0.9493127458
 H         -0.9674832100        0.7653834296        1.6762126221
 N         -3.4899420355       -0.0622202099        1.6136964160
 S         -3.9974312931       -1.4187729725        0.7698200545
 O         -5.1729120338       -1.0810072772        0.0092706493
 O         -4.1546171974       -2.4568410827        1.7632031559
 C         -2.6481139162       -1.8099933916       -0.3284920429
 C         -1.6033839628       -2.5725498977        0.1540333583
 C         -0.5332693321       -2.8476811945       -0.6812611905
 C         -0.5224373913       -2.3481641338       -1.9744509985
 C         -1.5707799170       -1.5699406053       -2.4384217754
 C         -2.6459882787       -1.2958682626       -1.6092799156
 H         -3.4825079788       -0.7002375849       -1.9360048809
 H         -1.5456545310       -1.1671559357       -3.4378117880
 H          0.3117226679       -2.5556984531       -2.6256738135
 H          0.2897989804       -3.4440842147       -0.3204093901
 H         -1.6524262489       -2.9504442726        1.1631449132
 H         -2.8812999163       -0.3536767635        2.3664152149
 H         -4.7385868491        1.3315222011       -0.2302156440
 H         -3.7334199339        3.1123471797       -1.6376941564
 H         -1.3617369987        3.6922771017       -1.3947318807
 H          0.6588993410        2.7510942447        1.3955232694
 C          1.0277713635        3.6392125850       -0.5141090622
 C          0.8344620123        5.0614842437       -0.0831187789
 C          2.1925362413        4.4329799936       -0.0060496265
 H          2.9487450979        4.7474130812       -0.7096344781
 H          2.5837704625        4.1767978353        0.9679260209
 H          0.6593483998        5.8114259228       -0.8393697930
 H          0.3032669329        5.2352911308        0.8404621879
 H          1.0012794884        3.4167136758       -1.5742984787
