  62
        -98.94388799
 C         -1.7925686379        1.1871585062       -0.3758983435
 C         -1.9807067972        0.2506116435        0.6687352091
 C         -3.3728522466        0.0405969081        1.0945546927
 C         -4.3573698501        0.7436394873        0.5055641703
 C         -5.8201760414        0.5863691684        0.8019397208
 C         -6.4646048592       -0.4525521554       -0.1265182829
 C         -5.6929134013       -1.7696659284       -0.2092370034
 H         -4.7263652778       -1.5891177982       -0.6854745391
 H         -6.2553479730       -2.4357959803       -0.8670779956
 C         -5.4670072380       -2.4588595440        1.1436820388
 H         -5.6856186402       -3.5233267072        1.0355472852
 H         -6.1611636906       -2.0592976981        1.8838869005
 C         -4.0381754720       -2.3508419315        1.6801557800
 H         -3.3299589803       -2.6635223024        0.9080309544
 H         -3.9351763424       -3.0471295942        2.5169366741
 C         -3.6171735765       -0.9646374581        2.1844423740
 H         -2.6619878869       -1.0785972501        2.7058739568
 H         -4.3558637408       -0.5918775974        2.8970701753
 H         -6.5257302558       -0.0282979748       -1.1313305285
 H         -7.4803119204       -0.6456709089        0.2232219046
 H         -5.9452955315        0.2882068160        1.8409203739
 H         -6.3081046730        1.5502192792        0.6479538986
 O         -4.1331656151        1.6537640125       -0.4763692302
 C         -2.8531500929        1.8863343178       -0.9521270794
 O         -2.7904988426        2.7238098626       -1.8747608239
 H          2.0687951997        0.3182014927       -0.3950214477
 C          1.4758642235       -0.2516892442       -1.0894086295
 C          0.2074947625        0.1795404541       -1.4437027433
 C         -0.5252477383       -0.5808810504       -2.3523346178
 C         -0.0057722976       -1.7461952492       -2.8800416458
 C          1.2557452075       -2.1807336477       -2.5109169105
 C          1.9984888732       -1.4285806128       -1.6104685103
 N          3.2988167790       -1.8174129395       -1.2499284118
 S          3.7577171741       -1.7999020936        0.3638022769
 O          4.9277405780       -2.6532706824        0.4043775679
 O          2.6722249196       -2.1745020101        1.2378838228
 C          4.2705074677       -0.1248597841        0.6765802019
 C          5.2142056245        0.4415379603       -0.1576737748
 C          5.6487492863        1.7310568196        0.1032528632
 C          5.1411981315        2.4249093242        1.1916029034
 C          4.1956497281        1.8404818854        2.0210469562
 C          3.7536733755        0.5520138301        1.7633067864
 H          3.0098011190        0.0628707532        2.3728706536
 H          3.7987004187        2.3818544161        2.8653436659
 H          5.4811597118        3.4283925209        1.3945024101
 H          6.3813123482        2.1911339114       -0.5399432282
 H          5.5889458013       -0.1328388789       -0.9881426260
 H          3.6191422287       -2.6639268946       -1.6989782121
 H          1.6615890269       -3.0947652692       -2.9178028920
 H         -0.5877390149       -2.3257512456       -3.5811109871
 H         -1.5122774067       -0.2420654663       -2.6381930666
 C         -0.3982497763        1.4562894944       -0.9129509381
 H         -0.5321494992        2.1426908639       -1.7622227409
 C          0.4534169684        2.1430490747        0.1336794926
 C          1.5566788177        3.0645113054       -0.2895596367
 C          0.3087284806        3.6217751683        0.3248614060
 H          0.3576005451        4.0182069653        1.3277500474
 H         -0.3946397466        4.1364532762       -0.3137515941
 H          1.7049935616        3.2073051980       -1.3491654867
 H          2.4669537660        3.0801782092        0.2901693671
 H          0.5995718519        1.5349042042        1.0193285562
 O         -1.0386715662       -0.3777155856        1.2188059371
