  62
        -98.93727738
 C         -2.3623943447       -0.5628120557        0.1258552283
 C         -3.4250082491       -0.4922500469        1.0557270645
 C         -4.4310720803        0.5584383809        0.8240097263
 C         -4.2761831197        1.3893936832       -0.2215734565
 C         -5.2021876579        2.4900166455       -0.6602096604
 C         -6.1898362002        1.9789557833       -1.7228813913
 C         -7.4681645717        1.3530812462       -1.1664359742
 H         -8.0969759091        2.1387407828       -0.7422766415
 H         -8.0109032298        0.9188379664       -2.0092476528
 C         -7.2585090903        0.2689936642       -0.1059311772
 H         -8.1639970860       -0.3396763918       -0.0658920277
 H         -6.4410547221       -0.3883639186       -0.4078455764
 C         -6.9814007567        0.8390061187        1.2931520514
 H         -7.2111074938        1.9043505831        1.2955962665
 H         -7.6589207876        0.3750547542        2.0130268986
 C         -5.5563030153        0.6169084035        1.8211184504
 H         -5.5088335606       -0.3417015525        2.3473933112
 H         -5.3260495027        1.3897761997        2.5621643187
 H         -6.4749044942        2.8136510521       -2.3664837456
 H         -5.6638856027        1.2509819041       -2.3459074691
 H         -5.7252938892        2.9161257731        0.1906255715
 H         -4.5750496069        3.2618668570       -1.1111014047
 O         -3.2288700506        1.2944892503       -1.0863356367
 C         -2.2517429183        0.3246435408       -0.9440372321
 O         -1.3630405718        0.3579617879       -1.8157882927
 O         -3.5313291279       -1.2758248427        2.0381321240
 C         -1.2948725455       -1.6265598220        0.3123767890
 C          0.0389192895       -0.9606458761        0.5436645060
 C          0.1814735508       -0.1260837441        1.6500181806
 C          1.3767955011        0.5183656285        1.9002983250
 C          2.4578092288        0.3492184851        1.0517680720
 C          2.3300372795       -0.4857787569       -0.0485461194
 C          1.1277684078       -1.1399728508       -0.2930561636
 H          1.0447704138       -1.7813816865       -1.1563908314
 N          3.4160933884       -0.6525475116       -0.9211888234
 S          4.9436505017       -0.9333599299       -0.2939470833
 O          5.6640417741       -1.6123401287       -1.3488527582
 O          4.8775677697       -1.6142898141        0.9782561746
 C          5.6307236262        0.6954296607       -0.0809355695
 C          5.6447512330        1.5442305940       -1.1702872067
 C          6.1895954254        2.8099549269       -1.0251863151
 C          6.7107279426        3.2025226432        0.1988115079
 C          6.6915856859        2.3377410554        1.2822443179
 C          6.1473098099        1.0703311319        1.1437649629
 H          6.1069047169        0.3662485183        1.9597063626
 H          7.0971589361        2.6449063921        2.2328687991
 H          7.1341135759        4.1884642693        0.3085775151
 H          6.2056210240        3.4854126624       -1.8654155774
 H          5.2323664930        1.2014960117       -2.1046567939
 H          3.2236769082       -1.2485623491       -1.7125990987
 H          3.3921045624        0.8530751446        1.2378648806
 H          1.4697789311        1.1625627709        2.7615438047
 H         -0.6643386406        0.0101769635        2.3102537031
 H         -1.5720697767       -2.1589784771        1.2337698092
 C         -1.3068025707       -2.6094715069       -0.8386158701
 C         -0.7305326899       -3.9811139983       -0.6562004841
 C         -2.2137834990       -3.7997649426       -0.7689143225
 H         -2.7065687883       -4.1259887245       -1.6725495200
 H         -2.8136832798       -3.9164073924        0.1217093074
 H         -0.2054913823       -4.4363022664       -1.4826944132
 H         -0.3200789591       -4.2249174885        0.3121734533
 H         -1.1905508948       -2.1288142831       -1.8035806500
