  62
        -98.94193603
 C          1.1773896759        1.5770687259        0.5066006128
 C          2.1153800513        1.2016346472       -0.4837003508
 C          3.1448267515        0.2327150241       -0.0711103517
 C          3.1513398902       -0.2316980098        1.1898571565
 C          4.1195308912       -1.1953519049        1.8288726090
 C          4.5134601300       -2.4409671879        1.0231986942
 C          3.4202450938       -2.9981911029        0.0991245234
 H          3.3215253331       -4.0715362173        0.2751819923
 H          2.4512297923       -2.5494214114        0.3302979743
 C          3.7343727223       -2.7972431272       -1.3854919784
 H          4.7867654818       -3.0359770627       -1.5574137039
 H          3.1366324546       -3.5053542723       -1.9648137388
 C          3.4395706945       -1.4030649744       -1.9362363234
 H          2.3575505874       -1.2422760027       -1.9604820515
 H          3.7926330670       -1.3671549198       -2.9699522763
 C          4.0692039003       -0.2362705603       -1.1567668053
 H          5.0491120661       -0.5034967989       -0.7686605013
 H          4.1815140949        0.6062676048       -1.8445430344
 H          5.4003010752       -2.2248825228        0.4285326521
 H          4.7992690276       -3.2060371530        1.7472558015
 H          5.0248235198       -0.6425772145        2.0971053427
 H          3.6394532196       -1.5021547313        2.7613071696
 O          2.2383906790        0.1723630324        2.1178693834
 C          1.2125483498        1.0428959514        1.7921199137
 O          0.4072894090        1.2611697323        2.7218478837
 H         -0.4214590784       -0.1238735665       -0.1898057921
 C         -0.9591873111        0.4560885590       -0.9227073164
 C         -0.8267615486        1.8368014111       -0.9318976516
 C         -1.5048530786        2.5568569700       -1.9079719032
 C         -2.2775196502        1.8989680169       -2.8498215718
 C         -2.4077262355        0.5215659793       -2.8327165302
 C         -1.7363153292       -0.2067743245       -1.8575920119
 N         -1.8211591397       -1.6052972389       -1.7951098957
 S         -1.7720046351       -2.3758018229       -0.3122677741
 O         -0.4378306788       -2.3507052303        0.2323232864
 O         -2.3178267389       -3.6895230297       -0.5803273885
 C         -2.9084498673       -1.4541474029        0.7086123617
 C         -2.4566241404       -0.6448339498        1.7299855633
 C         -3.3778117306        0.0960819569        2.4547421270
 C         -4.7270210294        0.0148731109        2.1501810022
 C         -5.1676395663       -0.8119673354        1.1272756859
 C         -4.2519045663       -1.5505022919        0.3973748041
 H         -4.5554168903       -2.2127337440       -0.3970750643
 H         -6.2183857187       -0.8791907664        0.8961095453
 H         -5.4375256660        0.5969822733        2.7154910690
 H         -3.0224632252        0.7355954803        3.2472575925
 H         -1.4023086182       -0.5900074765        1.9531878850
 H         -2.4842026765       -2.0286063134       -2.4267960554
 H         -3.0097263859        0.0132935084       -3.5699583115
 H         -2.7913109260        2.4690996043       -3.6087526295
 H         -1.4203943550        3.6309679318       -1.9364545594
 C          0.0168057835        2.4831435320        0.1433355687
 H         -0.6021570465        2.5628651787        1.0502997312
 C          0.5072558233        3.8659562491       -0.2344111037
 C         -0.3184361001        5.0761035468        0.0809113884
 C          0.9346039105        4.8017509543        0.8550705285
 H          1.7968738159        5.4293762049        0.6876138339
 H          0.8427945197        4.4499074621        1.8726866095
 H         -0.3152864337        5.8984353283       -0.6186105751
 H         -1.2628298561        4.9228270142        0.5810507332
 H          1.0884840671        3.8634466937       -1.1490037338
 O          2.0963687177        1.6496735007       -1.6596578725
