  62
        -98.93679332
 C         -2.4183912672       -1.2413814954        0.1079077343
 C         -2.3069869399        0.0409914432       -0.4838085119
 C         -3.5757164438        0.6764112038       -0.8779197310
 C         -4.7373200142        0.0361313882       -0.6565902139
 C         -6.0980652425        0.5921168914       -0.9589971843
 C         -6.6707434141        1.3456642333        0.2497505476
 C         -5.7002551211        2.3528733878        0.8667105416
 H         -6.2221886076        2.8445932095        1.6904205959
 H         -4.8533191283        1.8145642031        1.2984845797
 C         -5.1777582804        3.4131294761       -0.1126377344
 H         -5.8249248251        3.4589998157       -0.9892248470
 H         -5.2199290916        4.3900659302        0.3733955207
 C         -3.7307866717        3.2029858039       -0.5630003817
 H         -3.0891934688        3.0623100970        0.3107969121
 H         -3.3964219278        4.1119552961       -1.0703128620
 C         -3.4945600419        2.0309590890       -1.5239757886
 H         -4.1865229601        2.0990243936       -2.3661046815
 H         -2.4740801108        2.1186996804       -1.9092933404
 H         -7.5807873447        1.8599439996       -0.0641539882
 H         -6.9394707573        0.6156366634        1.0166555376
 H         -6.0299379866        1.2576039618       -1.8173079279
 H         -6.7614089235       -0.2385246132       -1.2057602417
 O         -4.8054890820       -1.1877061849       -0.0729474908
 C         -3.6576151890       -1.8456176258        0.3367521098
 O         -3.8682318773       -2.9427151852        0.8905705404
 H          1.4326608205       -1.3796437681       -0.0371371971
 C          1.0675806128       -0.8932912381        0.8508134273
 C         -0.2337589180       -1.0955100341        1.2820215168
 C         -0.6716394967       -0.4274784108        2.4229029308
 C          0.1657553793        0.4377670943        3.0987266463
 C          1.4590426357        0.6499847920        2.6554230665
 C          1.9115232682       -0.0229770449        1.5264109621
 N          3.2412403902        0.1420534935        1.0995255636
 S          3.6749245399        0.0151528714       -0.5243093259
 O          2.9697625471        0.9876140092       -1.3283382298
 O          3.5686337756       -1.3620864470       -0.9350897453
 C          5.3964847532        0.4667178520       -0.3956163475
 C          5.7807280258        1.7669664620       -0.6631759596
 C          7.1166978778        2.1125961101       -0.5326412217
 C          8.0408656725        1.1578138872       -0.1361223151
 C          7.6408378330       -0.1438713004        0.1273970301
 C          6.3068543685       -0.4957892672       -0.0024608371
 H          5.9509109412       -1.4957796790        0.1823847156
 H          8.3626989420       -0.8843188080        0.4321842514
 H          9.0797943150        1.4292430477       -0.0349095830
 H          7.4308882961        3.1227430755       -0.7406531658
 H          5.0289519584        2.4729598961       -0.9782385789
 H          3.6796558279        0.9534406536        1.5141441654
 H          2.1120745104        1.3322082255        3.1784784115
 H         -0.1917163618        0.9577222052        3.9751390101
 H         -1.6871338764       -0.5858023819        2.7620642924
 C         -1.1967859996       -2.0158139852        0.5722428390
 H         -1.5808146370       -2.7361510488        1.3144424841
 C         -0.5342259605       -2.8362380215       -0.5245708713
 C         -1.3156226554       -3.3620030902       -1.6902666501
 C         -0.2936606899       -2.2866112470       -1.8971688970
 H          0.6340032409       -2.5366602261       -2.3923827011
 H         -0.6306533697       -1.2816707409       -2.0985362245
 H         -1.0959976268       -4.3574727488       -2.0456312802
 H         -2.3603245808       -3.0945300736       -1.7562864932
 H          0.2332650354       -3.4950877457       -0.1286136186
 O         -1.2162981540        0.6388351275       -0.6770260602
