  62
        -98.94609880
 C         -1.5752063199       -1.3023563505        0.4028322392
 C         -1.5386442699       -0.2883700898       -0.5846707400
 C         -2.4122811201        0.8687167700       -0.3426289492
 C         -3.1459055501        0.9362347090        0.7827776908
 C         -4.0571743203        2.0647751186        1.1820908616
 C         -5.4623146502        1.9752356189        0.5709960715
 C         -5.5428204102        2.2882311500       -0.9237664183
 H         -6.6003938702        2.4004056001       -1.1708091383
 H         -5.0603082003        3.2461463002       -1.1206923275
 C         -4.9370963100        1.2078916408       -1.8307229391
 H         -5.6192758399        1.0037601314       -2.6591190093
 H         -4.8310685199        0.2773363004       -1.2683015198
 C         -3.5840938300        1.5758405614       -2.4400420187
 H         -3.2333755798        0.7266608619       -3.0321932893
 H         -3.7048564200        2.4273317319       -3.1135396381
 C         -2.4986140801        1.9180394108       -1.4109156684
 H         -1.5366602201        1.9525550213       -1.9288748583
 H         -2.6947669702        2.8967420004       -0.9729393976
 H         -5.8608098101        0.9749318887        0.7555687907
 H         -6.0957383904        2.6881105384        1.1037968920
 H         -3.6035566204        3.0190625589        0.9129467924
 H         -4.1517369404        2.0178152378        2.2689614116
 O         -3.1246594301       -0.0419192617        1.7255075601
 C         -2.3608312600       -1.1825753015        1.5539801893
 O         -2.4601570599       -2.0077584322        2.4827695086
 O         -0.8246578798       -0.3244983789       -1.6213626200
 C         -0.7293613797       -2.5637908304        0.2973628784
 C          0.7080453802       -2.1704472204        0.5333386188
 C          1.2163045801       -2.1454834013        1.8287003688
 C          2.4988493101       -1.6906358513        2.0760847292
 C          3.2902723401       -1.2217465405        1.0416540497
 C          2.7832809902       -1.2285055695       -0.2506710004
 C          1.5139809502       -1.7281871495       -0.5040893109
 H          1.1320709003       -1.7161331288       -1.5121690409
 N          3.5456054202       -0.6737304887       -1.2965818699
 S          4.1651635100        0.8545429612       -0.9984054187
 O          4.1832260400        1.5257275121       -2.2797898782
 O          5.4471877500        0.7267051008       -0.3487954087
 C          3.0199344798        1.6529535702        0.1192925618
 C          3.5096052197        2.2171636094        1.2801565923
 C          2.6282878996        2.8286098786        2.1568031327
 C          1.2741752696        2.8588052087        1.8626345326
 C          0.7977612297        2.2894574995        0.6922901822
 C          1.6749502098        1.6837405503       -0.1929054582
 H          1.3099906700        1.2285187409       -1.1003525086
 H         -0.2571706603        2.2979754296        0.4656829921
 H          0.5830998395        3.3244557281        2.5474809229
 H          2.9974397994        3.2723536580        3.0672708231
 H          4.5681056997        2.1585301793        1.4755072923
 H          3.0641716403       -0.6889794480       -2.1849184599
 H          4.2831085300       -0.8389340805        1.2159977900
 H          2.8819801100       -1.6860663321        3.0850019593
 H          0.5848299701       -2.4709167220        2.6433310185
 H         -1.0475536797       -3.2090559210        1.1261458978
 C         -0.9542483595       -3.3015846694       -1.0060193622
 C         -0.4661605494       -4.7119569492       -1.1375232533
 C         -1.9355734094       -4.4325295995       -1.0460699032
 H         -2.5414164993       -4.5577999489       -1.9311290733
 H         -2.4477174095       -4.6840268402       -0.1286579234
 H         -0.0609863593       -5.0326668885       -2.0850565635
 H          0.0203395406       -5.1519555598       -0.2800927936
 H         -0.9038212596       -2.6662813087       -1.8808386917
