  62
        -98.93653149
 C         -1.2129995367       -0.5953575046        0.5937100262
 C         -2.0578092904       -0.6279559816       -0.5420709643
 C         -3.0596293721        0.4442476008       -0.6148719177
 C         -3.0757691505        1.4134745572        0.3173368524
 C         -4.0186188527        2.5855884316        0.3595656073
 C         -5.3734349597        2.2742486872        1.0106299826
 C         -6.3127490445        1.4039031731        0.1745447265
 H         -7.2951276135        1.4469678150        0.6490040825
 H         -6.4132224978        1.8349558058       -0.8219977857
 C         -5.8826346672       -0.0653720599        0.0615348448
 H         -5.1494415702       -0.2905313242        0.8393679273
 H         -6.7454399517       -0.7116269182        0.2374336065
 C         -5.2960573693       -0.4516330785       -1.2963334537
 H         -4.9908162682       -1.5000190983       -1.2521330667
 H         -6.0631364389       -0.3554518415       -2.0677959241
 C         -4.0753944500        0.3785193245       -1.7150727670
 H         -4.3837823553        1.3811746797       -2.0109030970
 H         -3.6033612440       -0.1096935565       -2.5712742261
 H         -5.1943499561        1.7951354764        1.9759977021
 H         -5.8695591700        3.2288388194        1.2006290697
 H         -4.1761166671        2.9647589633       -0.6507151962
 H         -3.5222334864        3.3619491401        0.9462474269
 O         -2.1930379583        1.4502342244        1.3520259893
 C         -1.2519672405        0.4474418319        1.5180591279
 O         -0.5111516542        0.5961695824        2.5132591474
 O         -1.9818302903       -1.4946051113       -1.4484223142
 C         -0.1592038436       -1.6775804300        0.7940930605
 C          0.7279792217       -1.7008085529       -0.4300999471
 C          1.0807004921       -2.7812201382       -1.2274222044
 C          1.9399873253       -2.6118812316       -2.3023803516
 C          2.4911640420       -1.3809115974       -2.6000125932
 C          2.1444548799       -0.2879576267       -1.8131940014
 C          1.2707232220       -0.4594032165       -0.7555111110
 H          0.9833353527        0.4057010348       -0.1780985652
 N          2.6685954301        0.9886802177       -2.0619115947
 S          2.9272370698        2.0422272036       -0.7907755865
 O          1.6815558501        2.6246365315       -0.3565357760
 O          3.9102714726        2.9746199946       -1.3024681344
 C          3.6613279783        1.0464329568        0.4958117347
 C          4.9158583992        0.5226881210        0.2467781733
 C          5.5075226621       -0.2905603408        1.1984750421
 C          4.8355534111       -0.5695898515        2.3791901314
 C          3.5816293597       -0.0302328292        2.6177871660
 C          2.9847452947        0.7874977970        1.6700655964
 H          2.0046245082        1.2099577257        1.8339811093
 H          3.0519575600       -0.2426498320        3.5330102787
 H          5.2906597192       -1.2086664169        3.1192447636
 H          6.4854140480       -0.7062460281        1.0169488068
 H          5.4105130699        0.7714295258       -0.6779745976
 H          3.3995895450        1.0306828158       -2.7559563082
 H          3.1661297883       -1.2598183858       -3.4329038547
 H          2.1897439024       -3.4651496557       -2.9146492980
 H          0.6830782964       -3.7628162790       -1.0469945850
 H          0.4766636514       -1.3092865863        1.6176093254
 C         -0.8452108456       -2.9255370917        1.3283336714
 C         -1.4506696487       -4.0129913120        0.4983927781
 C         -0.2530782119       -4.3030051654        1.3552261238
 H         -0.4062750739       -4.8920224043        2.2477023787
 H          0.7061580945       -4.4647249231        0.8926671326
 H         -2.4082514020       -4.4048700591        0.8106898786
 H         -1.3504675515       -3.9444300354       -0.5721386539
 H         -1.4125394646       -2.6498927651        2.2159784833
