  62
        -98.93352648
 C         -0.8156365511       -2.1039296994       -0.3803847178
 C         -1.2634564106       -0.8931938995       -0.9634277584
 C         -2.6550280803       -0.5067428586       -0.6545896982
 C         -3.3726429804       -1.2499359877        0.2058356225
 C         -4.7609630501       -0.9385828266        0.6884216227
 C         -4.7224481192        0.2129425440        1.7128451920
 C         -5.4359419086        1.4832144441        1.2515783615
 H         -6.5151030087        1.3309781147        1.3222248719
 H         -5.1689549480        2.2812796543        1.9472987409
 C         -5.1160760088        1.9361983931       -0.1752689189
 H         -5.6802160193        1.3332155430       -0.8883842884
 H         -5.4846389082        2.9593994932       -0.2739511894
 C         -3.6337475689        1.9071387020       -0.5688755093
 H         -3.4380083086        2.7811605316       -1.1916594199
 H         -2.9963588586        1.9906750022        0.3111242705
 C         -3.2043759798        0.6822435613       -1.3952697387
 H         -2.3922108199        0.9863483305       -2.0621060991
 H         -4.0409001902        0.3569652714       -2.0210906183
 H         -5.1769000491       -0.1167275352        2.6483308423
 H         -3.6774743790        0.4402128435        1.9332022916
 H         -5.1539061005       -1.8455994461        1.1484085433
 H         -5.3929288602       -0.6775759568       -0.1578391473
 O         -2.8763679209       -2.3615498876        0.8106314430
 C         -1.6117003512       -2.8315730085        0.5081482629
 O         -1.3107498916       -3.8969050383        1.0837886934
 O         -0.5650246304       -0.1675053303       -1.7148040690
 C          0.5452762885       -2.7178297103       -0.6674287078
 C          1.5787078991       -2.2335559403        0.3155524316
 C          2.3184896788       -3.1476730203        1.0572733019
 C          3.2616573193       -2.7156177503        1.9716509614
 C          3.5005007301       -1.3645554103        2.1412515805
 C          2.7675535004       -0.4413780204        1.4038211102
 C          1.7990424199       -0.8762136503        0.5103163607
 H          1.2227739501       -0.1542745304       -0.0483405995
 N          2.9954315712        0.9352583696        1.5553828493
 S          3.1525217613        1.8832440187        0.1762957687
 O          3.5416214405        1.0879391978       -0.9627257309
 O          4.0786180420        2.9286321484        0.5658849578
 C          1.5572284616        2.6295205595       -0.0544731212
 C          0.9192816412        2.5564914591       -1.2748530710
 C         -0.2779327784        3.2351691297       -1.4410202311
 C         -0.8114306277        3.9653470606       -0.3914562613
 C         -0.1636779773        4.0159987209        0.8340719385
 C          1.0355382923        3.3462536504        1.0053650285
 H          1.5800262026        3.3735725406        1.9347492683
 H         -0.5870185368        4.5795886316        1.6501414083
 H         -1.7375868475        4.5012526510       -0.5271207414
 H         -0.7859148887        3.1860090994       -2.3906393609
 H          1.3559791907        1.9663021784       -2.0641449308
 H          3.7162459715        1.1622540896        2.2260129790
 H          4.2474632505       -1.0215461603        2.8415390101
 H          3.8236506591       -3.4354725403        2.5471539416
 H          2.1365125082       -4.2039910303        0.9230954126
 H          0.4102771980       -3.7970558402       -0.4875272372
 C          0.9779944682       -2.5676075414       -2.1191663980
 C          2.0616954585       -1.6524700823       -2.5946268289
 C          2.2946203077       -3.1316761124       -2.5665434881
 H          2.3397418871       -3.6702400030       -3.5012076778
 H          2.9534440377       -3.5165908723       -1.8022076081
 H          1.9152946985       -1.1722870128       -3.5509706091
 H          2.5827855991       -1.0294095622       -1.8842894794
 H          0.1407451779       -2.7012324514       -2.7977689177
