  62
        -98.94519231
 C         -1.8126582396       -1.4536734266        0.0991568526
 C         -1.5689215016       -0.0668468506       -0.0528121548
 C         -2.6346151100        0.8223456920        0.4328328678
 C         -3.7457707917        0.2895503256        0.9729169488
 C         -4.9301471549        1.0793918390        1.4482471427
 C         -5.9579746841        1.2717878863        0.3241953043
 C         -5.3544140651        1.7778369117       -0.9860187018
 H         -6.1760658878        1.9040052309       -1.6944832600
 H         -4.6940198212        1.0091990883       -1.3938544513
 C         -4.5792918421        3.0968719609       -0.8606149094
 H         -4.8559175158        3.6019226578        0.0655945339
 H         -4.8680226709        3.7521743264       -1.6851510753
 C         -3.0582075622        2.9455132937       -0.9212513631
 H         -2.6240097854        3.9417256594       -1.0393801473
 H         -2.7833254719        2.3613782908       -1.8027836198
 C         -2.4033102404        2.3016251807        0.3069695880
 H         -2.7286193754        2.8201346941        1.2111130938
 H         -1.3207221583        2.4193837636        0.2074728416
 H         -6.7205858238        1.9718928531        0.6703971369
 H         -6.4422461085        0.3119041195        0.1297546964
 H         -4.5920596675        2.0468654430        1.8144103971
 H         -5.4006207542        0.5347957901        2.2686604194
 O         -3.9389649825       -1.0482097498        1.1062080470
 C         -2.9784602541       -1.9510660969        0.6804445537
 O         -3.2722402651       -3.1482279246        0.8749818377
 O         -0.5219002963        0.4055026880       -0.5650711144
 C         -0.7636637865       -2.4547807141       -0.3537610794
 C          0.5363537733       -2.1339708653        0.3412555198
 C          0.5660157965       -2.1484696583        1.7334859601
 C          1.7145252024       -1.8067476878        2.4208275964
 C          2.8590252933       -1.4363064344        1.7354782939
 C          2.8390066349       -1.4180390502        0.3481157458
 C          1.6875860468       -1.7781402793       -0.3410303879
 H          1.6916131355       -1.7562933077       -1.4192870320
 N          3.9952650631       -1.0374140904       -0.3611596741
 S          4.6790660428        0.4521852915       -0.0179758162
 O          5.6150097357        0.6891969864       -1.0941351723
 O          5.2350505166        0.4216559657        1.3114441907
 C          3.3462147497        1.6331131405       -0.0985889756
 C          3.0312142825        2.1853036060       -1.3237578340
 C          1.9826331205        3.0858057292       -1.4035750373
 C          1.2660067896        3.4109942390       -0.2631034412
 C          1.5874021053        2.8392999047        0.9574605109
 C          2.6370453960        1.9397613129        1.0443952892
 H          2.9194953027        1.4797145335        1.9772418761
 H          1.0208946180        3.0870794987        1.8412412829
 H          0.4509499102        4.1151775720       -0.3271701987
 H          1.7235769743        3.5274460444       -2.3525348478
 H          3.6204663095        1.9139001579       -2.1852695992
 H          3.8951592943       -1.1353647388       -1.3618223736
 H          3.7595911054       -1.1506368868        2.2545521995
 H          1.7202396340       -1.8237719846        3.5004530641
 H         -0.3329521291       -2.4225143891        2.2696208528
 H         -1.1083569431       -3.4396922630       -0.0090182820
 C         -0.6706127203       -2.4709472085       -1.8649030593
 C         -0.1244446349       -3.6750212239       -2.5704290643
 C         -1.5892378864       -3.3656096309       -2.6390199799
 H         -1.9975329596       -3.0037238394       -3.5708270315
 H         -2.2729696533       -3.9831333632       -2.0748501007
 H          0.4709711894       -3.5293436653       -3.4592521408
 H          0.1894326460       -4.5100786884       -1.9625719571
 H         -0.4618358984       -1.4926098885       -2.2827483928
