  62
        -98.94331248
 C         -2.5102268746       -1.0616867295       -0.1452123292
 C         -3.6490125596       -0.8677496991        0.6737772051
 C         -4.6702252527        0.0422079884        0.1442521577
 C         -4.4908472449        0.6188549275       -1.0582576760
 C         -5.4513785647        1.5526463778       -1.7434749374
 C         -5.3228893881        3.0161250011       -1.2990230837
 C         -5.8539954993        3.3189476765        0.1026287555
 H         -5.9020172957        4.4054320087        0.1991242219
 H         -6.8719955367        2.9389588068        0.1941374312
 C         -4.9895867395        2.7604754790        1.2416751888
 H         -3.9989190205        2.5071815167        0.8568396908
 H         -4.8489746282        3.5305351327        2.0035542183
 C         -5.5774597870        1.5345325328        1.9406010535
 H         -6.5083711049        1.8092417804        2.4415738638
 H         -4.8695953080        1.2032137746        2.7047029674
 C         -5.8566556870        0.3487255053        1.0076617555
 H         -6.0565459590       -0.5320246818        1.6228876962
 H         -6.7331199954        0.5519622311        0.3928051981
 H         -4.2723384632        3.3089595909       -1.3620285159
 H         -5.8811079434        3.6239556217       -2.0147938352
 H         -5.2301734270        1.4965600953       -2.8114696053
 H         -6.4738704607        1.2102861039       -1.5818824762
 O         -3.3881536332        0.3952554845       -1.8210705132
 C         -2.3630935609       -0.4295581364       -1.3798094872
 O         -1.4046596497       -0.5196427765       -2.1701750672
 O         -3.8038028733       -1.4287210757        1.7915206064
 C         -1.4023336091       -1.9737384963        0.3522776765
 C         -0.1442614005       -1.1641042681        0.5459170553
 C         -0.1489280028       -0.1469387949        1.4979473571
 C          0.9701318050        0.6360247240        1.7019432834
 C          2.1192849708        0.4268642208        0.9582350965
 C          2.1372238567       -0.5868195035        0.0113354140
 C          1.0120967876       -1.3797265648       -0.1848828629
 H          1.0416089875       -2.1595501288       -0.9295628897
 N          3.2911007147       -0.7952955519       -0.7588176855
 S          4.7913690496       -0.8130917111       -0.0154652106
 O          5.6394638328       -1.5841235287       -0.8981455675
 O          4.7016708849       -1.2740406637        1.3505893144
 C          5.3138867398        0.8887724137       -0.0529301871
 C          5.2873668585        1.5530498174       -1.2634905742
 C          5.7069229727        2.8727627656       -1.3117672402
 C          6.1468232489        3.5015265898       -0.1563345298
 C          6.1702902892        2.8200299498        1.0507207204
 C          5.7507331380        1.4999076219        1.1059468113
 H          5.7464960344        0.9325949293        2.0231053479
 H          6.5128422474        3.3105322399        1.9476785147
 H          6.4730452805        4.5287807543       -0.1973421880
 H          5.6887430485        3.4061530406       -2.2485978985
 H          4.9401990699        1.0300419117       -2.1390044736
 H          3.2048373540       -1.5312163601       -1.4439191539
 H          2.9953844385        1.0361575302        1.1090920880
 H          0.9497899757        1.4198180578        2.4440154618
 H         -1.0482473919        0.0197164288        2.0752691488
 H         -1.7359573104       -2.3231475330        1.3400615843
 C         -1.2362757172       -3.1730771969       -0.5558130715
 C         -0.5638116590       -4.4097864335       -0.0410188742
 C         -2.0420120390       -4.4070625871       -0.2871161960
 H         -2.4263223698       -4.9644996672       -1.1281049637
 H         -2.7038419593       -4.3934610478        0.5663475057
 H          0.0669310703       -4.9736171715       -0.7119250000
 H         -0.2182497959       -4.4002023678        0.9817993697
 H         -1.0792084006       -2.8989652079       -1.5928987349
