  62
        -98.94298758
 C         -2.6790812647        1.2046531347       -0.1328428209
 C         -2.6981527225        0.2120313394        0.8760837456
 C         -3.8909026527       -0.6469663397        0.9028488069
 C         -4.8755254785       -0.4377616586        0.0099265045
 C         -6.1157309672       -1.2741733357       -0.1107521043
 C         -5.9132949337       -2.4260684179       -1.1053113061
 C         -4.6332302520       -3.2281649408       -0.8702207597
 H         -4.6121731299       -4.0306535676       -1.6107748272
 H         -3.7695812154       -2.5883094066       -1.0657015100
 C         -4.5091571028       -3.8278786640        0.5373651570
 H         -5.4874186117       -3.8474730919        1.0190861907
 H         -4.1709041965       -4.8623472571        0.4484010138
 C         -3.5105811865       -3.1095402082        1.4469222043
 H         -2.5531908385       -3.0036870613        0.9302350223
 H         -3.3403821312       -3.7361621675        2.3264375365
 C         -3.9416257560       -1.7254261678        1.9481309663
 H         -4.9375877270       -1.7873715831        2.3913303719
 H         -3.2363878389       -1.4199636264        2.7265977327
 H         -6.7773539070       -3.0902192437       -1.0444893091
 H         -5.8755470203       -2.0092561905       -2.1144879400
 H         -6.3790854539       -1.6679040513        0.8689384439
 H         -6.9271322292       -0.6370730304       -0.4666588748
 O         -4.8298477037        0.5417383708       -0.9296349208
 C         -3.7292350122        1.3758599496       -1.0342423664
 O         -3.8027824602        2.2150242753       -1.9550564585
 H          0.9373053796        2.1776584251        1.0807377447
 C          0.9149640404        1.4602918032        0.2752431203
 C         -0.2310094533        1.3125511951       -0.4885049231
 C         -0.2211800363        0.3843237000       -1.5269738635
 C          0.8976189981       -0.3853835064       -1.7774114073
 C          2.0341195133       -0.2483063946       -0.9987950550
 C          2.0412380423        0.6827103082        0.0294754355
 N          3.1850760749        0.8221266876        0.8297599992
 S          4.6952896462        0.8929817351        0.1081318053
 O          5.5353637714        1.5791717149        1.0652500215
 O          4.6247707500        1.4716508666       -1.2135331424
 C          5.2066330934       -0.8094834065        0.0041959749
 C          5.1837004415       -1.5699943137        1.1567936539
 C          5.5904831246       -2.8930751656        1.0933704034
 C          6.0138614464       -3.4295770903       -0.1135882911
 C          6.0345224386       -2.6519443615       -1.2611565123
 C          5.6279234310       -1.3278760662       -1.2045950444
 H          5.6219284468       -0.6875983314       -2.0724720061
 H          6.3642725863       -3.0707264990       -2.1983836404
 H          6.3295161278       -4.4599127533       -0.1599066713
 H          5.5751388375       -3.5012136293        1.9835273204
 H          4.8499427313       -1.1167020533        2.0752535969
 H          3.0942768790        1.5042156308        1.5681548914
 H          2.9085886320       -0.8495697428       -1.1859369772
 H          0.8861830262       -1.1029622139       -2.5839868095
 H         -1.1096981020        0.2754464874       -2.1348642387
 C         -1.4807726130        2.1281515227       -0.2606110468
 H         -1.6577714971        2.7338943537       -1.1614635185
 C         -1.4043504338        3.0514923714        0.9371849775
 C         -0.7450847359        4.3917096280        0.8148941516
 C         -2.2353479685        4.2977437066        0.9423172549
 H         -2.6952295508        4.6076734709        1.8686742225
 H         -2.8393709636        4.4940142154        0.0683197437
 H         -0.1835826363        4.7715337627        1.6555313394
 H         -0.3339343276        4.6611688068       -0.1464887883
 H         -1.3061248103        2.5137218764        1.8733340965
 O         -1.7707578856        0.0505703957        1.7113739180
