  62
        -98.94403654
 C         -1.7993200324       -0.6461495847       -0.9287195399
 C         -1.9137024126       -0.0297355389        0.3408478922
 C         -3.2698918582        0.0151089573        0.9047947930
 C         -4.2962900319       -0.5339177733        0.2302032300
 C         -5.7279145442       -0.5969274290        0.6895129406
 C         -6.5370479569        0.6734562566        0.3947865482
 C         -6.1943089238        1.8798062359        1.2696568156
 H         -6.9762660671        2.6246389952        1.1090061635
 H         -6.2333983429        1.5884133064        2.3197625096
 C         -4.8332327114        2.5188707906        0.9609437825
 H         -4.4886088496        2.1856415319       -0.0205447119
 H         -4.9438926940        3.6043684290        0.9103609970
 C         -3.7448281872        2.2230039991        1.9929690712
 H         -4.0189541700        2.6662437394        2.9530078964
 H         -2.8168455578        2.6935708000        1.6583544778
 C         -3.4657900333        0.7295462153        2.2079239945
 H         -4.2773296440        0.2731272540        2.7747532369
 H         -2.5403443914        0.6315340113        2.7816291159
 H         -7.5912013810        0.4299382577        0.5458515471
 H         -6.4039699719        0.9362651847       -0.6570810121
 H         -6.1885819911       -1.4300412069        0.1542322442
 H         -5.7602617247       -0.8106504793        1.7583014312
 O         -4.1391815687       -1.1360978977       -0.9787302514
 C         -2.8973242975       -1.1979808700       -1.5894746872
 O         -2.8991442835       -1.7682043358       -2.6994840761
 O         -0.9411606432        0.4583058424        0.9732060601
 C         -0.4449882367       -0.7573550843       -1.6072663582
 C          0.4640203538       -1.6333625028       -0.7784687451
 C          0.0364217756       -2.9186374750       -0.4523132503
 C          0.8376562513       -3.7618765755        0.2915642894
 C          2.0793892975       -3.3386172599        0.7348046543
 C          2.5161944782       -2.0598458944        0.4165138084
 C          1.7132493359       -1.2203905644       -0.3453392694
 H          2.0730257749       -0.2368322102       -0.5907502809
 N          3.7848118656       -1.6076907993        0.8194830063
 S          3.9103948998       -0.1252492330        1.6008933038
 O          5.2075127524       -0.1765328679        2.2439937961
 O          2.7841881313        0.1161261518        2.4709124367
 C          3.9732042296        1.0784244723        0.2922454630
 C          3.0258757880        2.0817417525        0.2391083552
 C          3.1089627745        3.0248983114       -0.7734694798
 C          4.1307828461        2.9473828112       -1.7081608030
 C          5.0734919685        1.9322731520       -1.6398870012
 C          4.9984505994        0.9880648994       -0.6286853010
 H          5.7142439983        0.1888122446       -0.5343676986
 H          5.8638933747        1.8752415622       -2.3706986720
 H          4.1898172401        3.6826721808       -2.4954328018
 H          2.3733815869        3.8116989513       -0.8303862251
 H          2.2378412994        2.0923877981        0.9764717385
 H          4.3312913705       -2.3025717439        1.3092086956
 H          2.7046167640       -3.9942454545        1.3223888752
 H          0.4926471522       -4.7557600400        0.5347390415
 H         -0.9360058120       -3.2464971140       -0.7948856431
 H         -0.6293437002       -1.2752201097       -2.5599412031
 C          0.1284265822        0.6126148045       -1.8997835292
 C          1.1113265611        0.7872637016       -3.0171879511
 C         -0.2824813287        1.3203011932       -3.1543832259
 H         -0.4345256700        2.3883680803       -3.1166274485
 H         -0.9669406118        0.8057581757       -3.8134013718
 H          1.9206313744        1.4894456212       -2.8860482595
 H          1.3750077366       -0.0898779616       -3.5883226939
 H          0.2552154512        1.2130080627       -1.0065017805
