  62
        -98.94049783
 C         -2.3767095442       -0.7449430474       -0.0955825862
 C         -3.5286066282       -1.0219678170        0.6788200240
 C         -4.8053082619       -0.5861182555        0.1031552563
 C         -4.8230941447        0.0149787764       -1.1007172403
 C         -6.0483993115        0.4950311079       -1.8305908793
 C         -6.5242036724        1.8898215263       -1.4012796183
 C         -7.1819339077        1.9573416896       -0.0223789111
 H         -7.6586595777        2.9363026396        0.0575714622
 H         -7.9693376600        1.2057192209        0.0405045745
 C         -6.2088142868        1.7854151688        1.1523265626
 H         -5.1856224047        1.9436803816        0.8033858045
 H         -6.4105767523        2.5483736796        1.9076007890
 C         -6.2894566989        0.4267699213        1.8485067938
 H         -5.5342359138        0.4003206886        2.6383070114
 H         -7.2696197208        0.3120799412        2.3165498588
 C         -6.0471437791       -0.7720769075        0.9220207928
 H         -5.9060218495       -1.6612658335        1.5412917094
 H         -6.9101391634       -0.9289853398        0.2755086064
 H         -5.6728857957        2.5736711146       -1.4332172644
 H         -7.2506911126        2.2285004387       -2.1434757258
 H         -5.7837049401        0.5322550788       -2.8894166586
 H         -6.8578591051       -0.2235499846       -1.6994503742
 O         -3.6940249644        0.2450624399       -1.8232255904
 C         -2.4441422906       -0.1083138232       -1.3345680410
 O         -1.4967180393        0.1889217676       -2.0868012455
 O         -3.4901912294       -1.6016021749        1.7975389042
 C         -1.0183504652       -1.1545073793        0.4400603667
 C         -0.1081943575        0.0419255744        0.5690364297
 C         -0.5911906769        1.1993343001        1.1755961600
 C          0.2183637448        2.3072260577        1.3308757228
 C          1.5350893989        2.2800449576        0.9052086375
 C          2.0284783936        1.1300143293        0.3024309540
 C          1.2069153163        0.0232385100        0.1341957946
 H          1.6187782568       -0.8525051423       -0.3383435505
 N          3.3547490739        1.0700418949       -0.1541259306
 S          4.1806075537       -0.3965543302       -0.0156435552
 O          3.8883984934       -1.2116419204       -1.1676635775
 O          3.9165070714       -0.9926490760        1.2742907222
 C          5.8687882658        0.1740549216       -0.0960669099
 C          6.5664051153        0.3888845691        1.0777530104
 C          7.8683545520        0.8590289580        1.0076018041
 C          8.4467369155        1.1073345100       -0.2281252852
 C          7.7344027547        0.8861382625       -1.3976256804
 C          6.4324277019        0.4155441831       -1.3347803419
 H          5.8431845658        0.2207128010       -2.2158007001
 H          8.1884191150        1.0774530560       -2.3565164444
 H          9.4602522603        1.4724956077       -0.2803783642
 H          8.4257397463        1.0287853914        1.9146944585
 H          6.0792326173        0.1724256842        2.0149124419
 H          3.9164397686        1.8495992065        0.1596451071
 H          2.1706640362        3.1431867233        1.0325241136
 H         -0.1746543907        3.1980316640        1.7977660592
 H         -1.6157546900        1.2170260188        1.5225090574
 H         -1.2079351170       -1.5442458543        1.4524169264
 C         -0.4317245020       -2.2678196820       -0.4020337697
 C          0.5307106227       -3.2448356387        0.2022968885
 C         -0.8592370596       -3.6810576986       -0.1483218896
 H         -0.9965336317       -4.3380489403       -0.9939196616
 H         -1.5604272296       -3.8491963976        0.6560311750
 H          1.3549813410       -3.5947232894       -0.4018352998
 H          0.7811656778       -3.1192035253        1.2452905270
 H         -0.2725702678       -1.9694863142       -1.4330725636
