  62
        -98.93915400
 C          2.3536272376        1.2769553048       -0.0202287004
 C          3.1229759433        0.5309695462        0.8994540194
 C          3.8404600949       -0.6465360070        0.3728215847
 C          3.7116876868       -0.9499329824       -0.9324866884
 C          4.2984446620       -2.1199937940       -1.6760554889
 C          3.5465463687       -3.4317012135       -1.3956870323
 C          3.1903801832       -3.6690621363        0.0698611847
 H          2.5838316576       -2.8352005748        0.4298001341
 H          2.5641577260       -4.5642044815        0.1181838913
 C          4.3794984964       -3.8772680494        1.0051341750
 H          3.9764306573       -4.1115747221        1.9938156468
 H          4.9514783083       -4.7438625825        0.6663758246
 C          5.3351315415       -2.6910355570        1.1491140667
 H          5.9882844139       -2.6083165308        0.2848002211
 H          5.9805974930       -2.8971134420        2.0078855328
 C          4.6568307231       -1.3533943595        1.4284356414
 H          3.9958275982       -1.4620537113        2.2960457028
 H          5.4233972653       -0.6333669768        1.7396517446
 H          2.6126052106       -3.4134122671       -1.9636309916
 H          4.1500340088       -4.2623853942       -1.7651288114
 H          4.2107025896       -1.8912235410       -2.7403736502
 H          5.3544252574       -2.2196626786       -1.4436251486
 O          2.9436179862       -0.2086189311       -1.7817008727
 C          2.2436405057        0.9068900343       -1.3602589964
 O          1.5819005016        1.4698205973       -2.2524167455
 O          3.2006747444        0.8234753744        2.1247493414
 C          1.5741773596        2.4828542070        0.4735301994
 C          0.0986228581        2.2348015830        0.2762894055
 C         -0.7562396745        3.1214535059       -0.3635387034
 C         -2.0921022087        2.8019025072       -0.5392605839
 C         -2.6046453237        1.6037254100       -0.0778506081
 C         -1.7599402790        0.7130795551        0.5723846886
 C         -0.4249225284        1.0370498994        0.7491691736
 H          0.2338271795        0.3385160891        1.2517629943
 N         -2.2730885389       -0.5062424477        1.0563924452
 S         -3.0515838257       -1.5017046276       -0.0537934740
 O         -2.9355664561       -2.8368507368        0.4927837455
 O         -2.5420451868       -1.3087277195       -1.3920337887
 C         -4.7522538379       -0.9837524355        0.0389339726
 C         -5.3714971126       -1.0005050655        1.2735590461
 C         -6.6964593259       -0.6047624697        1.3620662704
 C         -7.3765927537       -0.2052115000        0.2210517963
 C         -6.7416161134       -0.1978926198       -1.0114512944
 C         -5.4154553354       -0.5908118666       -1.1068671061
 H         -4.8771618735       -0.5943188629       -2.0413904947
 H         -7.2715866361        0.1126930565       -1.8975368370
 H         -8.4078096116        0.1024757556        0.2927813697
 H         -7.1936852701       -0.6087679478        2.3185907171
 H         -4.8076885729       -1.3212444297        2.1334950585
 H         -1.5942157024       -1.0428241403        1.5781954962
 H         -3.6420526505        1.3490504841       -0.2211097520
 H         -2.7432917761        3.4967058852       -1.0472222178
 H         -0.3747394817        4.0568244679       -0.7380903059
 H          1.7718718243        2.5362221942        1.5545392097
 C          2.0762089531        3.7528219620       -0.1784448746
 C          1.9252379171        5.0688936735        0.5225643383
 C          3.2779218467        4.4365388096        0.3992093219
 H          3.9955973601        4.8754289082       -0.2774614686
 H          3.7219607039        3.9976209752        1.2808324819
 H          1.7159690305        5.9470161964       -0.0692839267
 H          1.4516983847        5.0663443834        1.4925292934
 H          1.9843116151        3.7306779670       -1.2584390196
