  62
        -98.94874220
 C         -2.0592687474       -1.0074150270       -0.1757109285
 C         -1.1971909821       -1.7561657878       -1.0100487442
 C         -0.2847226854       -2.6779655638       -0.3279033607
 C         -0.3039802100       -2.7600687447        1.0151097356
 C          0.5749221349       -3.6449607978        1.8570230218
 C          1.9602365759       -3.0443430444        2.1350876008
 C          2.9296327428       -3.0744282276        0.9523288004
 H          3.9235596386       -2.8569611564        1.3482327632
 H          2.9575296311       -4.0796109346        0.5296414075
 C          2.6067343681       -2.0535560513       -0.1474947809
 H          1.9404027418       -1.2886063832        0.2591015755
 H          3.5243541747       -1.5439046995       -0.4516063017
 C          1.9818143129       -2.6484756870       -1.4092402714
 H          2.7055232757       -3.3013012758       -1.9023544692
 H          1.7476078717       -1.8268540785       -2.0904986191
 C          0.6944462657       -3.4456635051       -1.1651783957
 H          0.2223790859       -3.6362775150       -2.1324124081
 H          0.9265490582       -4.4008205156       -0.6946657024
 H          1.8292759266       -2.0110443344        2.4681552199
 H          2.4029430927       -3.6094649740        2.9590223201
 H          0.0590410639       -3.7788647443        2.8103442141
 H          0.6854734703       -4.6197334799        1.3803516749
 O         -1.1637935872       -2.0403423960        1.7824929769
 C         -2.0251810074       -1.1152004827        1.2151053739
 O         -2.7146098365       -0.4807524807        2.0381171627
 O         -1.1856545245       -1.6503212943       -2.2675743063
 C         -2.9567086108        0.0420465747       -0.8056919137
 C         -2.5282953618        1.4120274361       -0.3357232435
 C         -3.4164560870        2.4346857343       -0.0316670023
 C         -2.9443411232        3.6543465718        0.4240143103
 C         -1.5908936188        3.8720588586        0.6013424427
 C         -0.6909932292        2.8585281890        0.2858252456
 C         -1.1666185506        1.6564724366       -0.2073714194
 H         -0.4719574445        0.8635798982       -0.4392061878
 N          0.6915381726        3.0507535433        0.4403099852
 S          1.7231159855        1.8601126513        1.0201248157
 O          1.0073394686        0.6757727474        1.4270775245
 O          2.5250545916        2.5038770291        2.0412534836
 C          2.7819605691        1.4903413237       -0.3676676638
 C          4.1433051700        1.4120565667       -0.1455966369
 C          4.9826748955        1.0906145593       -1.2004259499
 C          4.4493810826        0.8511416759       -2.4573030638
 C          3.0817288783        0.9375898330       -2.6666060312
 C          2.2377443432        1.2596109537       -1.6151109256
 H          1.1712654242        1.3285588048       -1.7576381986
 H          2.6640353679        0.7523520794       -3.6434920480
 H          5.1003014904        0.5965470701       -3.2785975179
 H          6.0464247581        1.0254642295       -1.0376113592
 H          4.5136279137        1.6083600708        0.8473096302
 H          0.9397323686        3.9412560581        0.8462451836
 H         -1.2288465290        4.8141669999        0.9845997030
 H         -3.6434947619        4.4413385445        0.6633616578
 H         -4.4769349735        2.2740853066       -0.1374988533
 H         -2.7696416313       -0.0254892781       -1.8886496124
 C         -4.4178769971       -0.2550653310       -0.5450821928
 C         -5.4619086481        0.1392013649       -1.5458555838
 C         -5.1001374454       -1.3039509126       -1.3698270547
 H         -5.8067673549       -1.9609624493       -0.8855917851
 H         -4.5156334262       -1.7840765369       -2.1410600545
 H         -6.4228292893        0.4723658110       -1.1836770961
 H         -5.1309987221        0.6364243322       -2.4450931465
 H         -4.6690304760       -0.2045987620        0.5084322051
