  62
        -98.94469680
 C         -2.5720753671        0.1765615711        0.3567470583
 C         -2.1534589694        0.7179447712       -0.8832339293
 C         -1.6778637624        2.1081315077       -0.8463521798
 C         -1.6498096573        2.7650768727        0.3270146899
 C         -1.1726038295        4.1764003616        0.5132351872
 C          0.3178366512        4.2303835966        0.8720678855
 C          1.2125751724        3.4118424021       -0.0591690662
 H          2.2458552562        3.5805294857        0.2547581304
 H          1.0117692982        2.3473068029        0.0866522480
 C          1.0685101309        3.7530433533       -1.5488737388
 H          0.6090432940        4.7362727743       -1.6629723676
 H          2.0662064299        3.8052163894       -1.9894976176
 C          0.2801431282        2.7202856662       -2.3572863400
 H          0.6544925814        1.7199654337       -2.1260870612
 H          0.4612692667        2.9069431760       -3.4194809654
 C         -1.2391919540        2.7245910810       -2.1442163422
 H         -1.6245880246        3.7427000745       -2.2385261395
 H         -1.6872484006        2.1110784374       -2.9313650371
 H          0.6358054792        5.2750924220        0.8592190162
 H          0.4454029894        3.8463809546        1.8871871571
 H         -1.3563091646        4.7365565764       -0.4017066548
 H         -1.7474417413        4.6251884615        1.3257221452
 O         -2.0436466844        2.2051663032        1.5013618189
 C         -2.4885153664        0.8950756158        1.5473897492
 O         -2.7883074744        0.4918955882        2.6923961533
 H         -0.4814721936       -1.0472563819        1.1293124825
 C         -0.6369438312       -1.8971811996        0.4760388116
 C         -1.9152688689       -2.1785557919        0.0083261089
 C         -2.0833472791       -3.2858081535       -0.8121210492
 C         -0.9970831903       -4.0666457579       -1.1729742126
 C          0.2785837667       -3.7544767047       -0.7391075629
 C          0.4525656409       -2.6578612118        0.0944858558
 N          1.7663661224       -2.2767389041        0.5042532022
 S          2.0519944268       -0.6200411509        0.4971752758
 O          1.7326617676       -0.0205910977        1.7800138243
 O          1.4164124552       -0.0644931221       -0.6683325402
 C          3.8208612653       -0.6163810228        0.2722447105
 C          4.3143287317       -0.9303734241       -0.9795520616
 C          5.6859697703       -0.9719045606       -1.1692528527
 C          6.5381197205       -0.7015807466       -0.1084567777
 C          6.0286497968       -0.3864939371        1.1417229166
 C          4.6566314252       -0.3442154053        1.3371522968
 H          4.2152198070       -0.0968344927        2.2893582444
 H          6.6926479628       -0.1740134075        1.9641544059
 H          7.6057665926       -0.7351280284       -0.2578786260
 H          6.0852292520       -1.2145369056       -2.1409075341
 H          3.6116243194       -1.1253419584       -1.7730624716
 H          2.0505693414       -2.6841105783        1.3842551477
 H          1.1329504133       -4.3400786886       -1.0367759493
 H         -1.1467347249       -4.9202070425       -1.8163996785
 H         -3.0666546220       -3.5322756053       -1.1788936133
 C         -3.0400361552       -1.2661111760        0.4352146429
 H         -3.2474920580       -1.4590882477        1.4990312407
 C         -4.3155596877       -1.4646443982       -0.3561814938
 C         -5.3084031804       -2.5066235930        0.0612852537
 C         -5.6179836303       -1.0542302634        0.2602907885
 H         -6.3630486386       -0.5914978515       -0.3690419185
 H         -5.5850603233       -0.6543270882        1.2636933886
 H         -5.0766350306       -3.0975205518        0.9345764414
 H         -5.8470325647       -3.0417863771       -0.7060155427
 H         -4.1799309157       -1.2754079312       -1.4145334028
 O         -2.1949171291        0.0798445156       -1.9672244401
