  62
        -98.93655707
 C         -1.2864455847       -1.2209649766        0.2086579717
 C         -2.2306321135       -0.7792651868        1.1670968340
 C         -2.8783231785        0.5173030871        0.9073935752
 C         -2.5071935051        1.2327452010       -0.1677547697
 C         -2.9947024208        2.5934182045       -0.5984002873
 C         -4.5051056669        2.8603676330       -0.5244006891
 C         -5.3970152945        1.6350208536       -0.7720340692
 H         -4.8019747315        0.8113015072       -1.1699238070
 H         -6.1461752918        1.8880436927       -1.5245869645
 C         -6.1360613067        1.1703800451        0.4854288017
 H         -6.9984336471        0.5703399156        0.1847965268
 H         -6.5177727003        2.0482142595        1.0115265772
 C         -5.3142125831        0.3243384118        1.4574998740
 H         -5.1253236674       -0.6613183312        1.0228513401
 H         -5.9152165571        0.1656012241        2.3562382582
 C         -3.9579599043        0.9191530309        1.8703763016
 H         -3.6807552245        0.4847619804        2.8349801636
 H         -4.0193969494        1.9991146130        1.9814817729
 H         -4.7271414559        3.6271251357       -1.2684969712
 H         -4.7531512236        3.2866970442        0.4467498524
 H         -2.4722969773        3.3466957468       -0.0018691104
 H         -2.6545636891        2.7031667576       -1.6303646502
 O         -1.5534964524        0.7962988990       -1.0353246407
 C         -0.9217602901       -0.4299210067       -0.8824145310
 O         -0.0805925925       -0.6763000422       -1.7631021116
 H          0.9261645927       -0.8264439736        1.7641865806
 C          1.5192572648       -1.3938438486        1.0564615200
 C          0.8970259850       -2.3665675865        0.2823368302
 C          1.6671534580       -3.0812777377       -0.6240443776
 C          3.0196396831       -2.8155746378       -0.7570965082
 C          3.6317970831       -1.8387324174        0.0058890095
 C          2.8697608380       -1.1207426323        0.9188752065
 N          3.4780425316       -0.1109205745        1.6961828950
 S          4.1614361796        1.1679013681        0.8550348792
 O          5.3399381284        0.7001348735        0.1710526324
 O          4.3671198483        2.2028759905        1.8439419000
 C          2.9280656932        1.6820718692       -0.3242176334
 C          2.9368067276        1.1475156853       -1.5961461084
 C          1.9479521523        1.5284199077       -2.4880274841
 C          0.9739840332        2.4316714174       -2.0949014223
 C          0.9762003395        2.9560970959       -0.8121044161
 C          1.9584706326        2.5748966465        0.0865376054
 H          1.9988420812        2.9656610646        1.0912967765
 H          0.2122979040        3.6546305543       -0.5090719813
 H          0.2015478133        2.7196916871       -2.7901515045
 H          1.9317533242        1.1096632632       -3.4807620824
 H          3.7120956461        0.4495111889       -1.8663587233
 H          2.8640572007        0.2568472099        2.4096936378
 H          4.6790662541       -1.6063103218       -0.1011439797
 H          3.6045374718       -3.3734553006       -1.4726181818
 H          1.2049511889       -3.8281274465       -1.2480674534
 C         -0.5895805305       -2.5471821699        0.4573650438
 H         -0.7829382132       -2.7617053037        1.5222081538
 C         -1.1591899093       -3.7184166806       -0.3277238378
 C         -2.5902831550       -3.7224336885       -0.7731354872
 C         -1.4911227089       -3.6220099309       -1.7855777195
 H         -1.2953629453       -4.4798267653       -2.4123888885
 H         -1.3224523250       -2.6757096383       -2.2743148871
 H         -3.1798123578       -2.8402855190       -0.5690614781
 H         -3.1478033136       -4.6444950885       -0.7034160332
 H         -0.7642634855       -4.6682799997        0.0197696959
 O         -2.5092791929       -1.4323171181        2.2089509837
