  62
        -98.94104355
 C          2.0030201400       -0.3531036767       -0.0865541404
 C          3.0957151799       -1.0701823387       -0.6408248292
 C          4.3284393521       -0.3067249893       -0.8719237286
 C          4.3416238580        1.0120180791       -0.6078655816
 C          5.5421096300        1.9021748794       -0.7430407610
 C          6.3336653584        1.9671408239        0.5708187962
 C          6.6308105047        0.5977681529        1.1823668555
 H          7.2185599654        0.7666261394        2.0872989110
 H          5.6913143254        0.1344579114        1.4925335598
 C          7.3866259904       -0.3626118672        0.2533349407
 H          7.8550875763        0.1978649753       -0.5564722272
 H          8.1870412376       -0.8413765259        0.8213734306
 C          6.5276949105       -1.4827120837       -0.3367549032
 H          5.9848164013       -1.9890885189        0.4655191670
 H          7.1950859261       -2.2180991947       -0.7938007432
 C          5.5170068511       -1.0539212135       -1.4079374672
 H          6.0237695198       -0.4703030926       -2.1791491182
 H          5.1171027788       -1.9611055350       -1.8703696183
 H          7.2705319473        2.4950022556        0.3836547693
 H          5.7559961396        2.5471511092        1.2944475287
 H          6.1771095410        1.5287943382       -1.5441616651
 H          5.1991919775        2.9056292562       -1.0010035470
 O          3.2594794750        1.6792125646       -0.1372203142
 C          2.0665771562        1.0219195167        0.1474748062
 O          1.1790768296        1.7741083575        0.5890522562
 O          3.0410399155       -2.2952537481       -0.9292276568
 C          0.7279054759       -1.1350707823        0.1797622666
 C         -0.4549729620       -0.4270251549       -0.4274160104
 C         -0.6472010674       -0.4878668463       -1.8043282127
 C         -1.7059441654        0.1707051779       -2.4010263024
 C         -2.5936927724        0.9068284169       -1.6367254389
 C         -2.4085134168        0.9759881241       -0.2624237290
 C         -1.3543034852        0.2994983803        0.3370313148
 H         -1.2093688228        0.3773649097        1.4031792904
 N         -3.3048072656        1.7270940945        0.5175323306
 S         -4.9414526098        1.4760856103        0.2904808957
 O         -5.3793752643        2.1535515371       -0.9042373176
 O         -5.5681548419        1.8967235295        1.5236592150
 C         -5.0950052432       -0.2885911469        0.0791476202
 C         -4.8375275458       -1.0943641980        1.1708100927
 C         -4.8888184822       -2.4698061957        1.0163960247
 C         -5.1892695219       -3.0137871901       -0.2233013187
 C         -5.4476277917       -2.1916111152       -1.3086740928
 C         -5.3990690100       -0.8145764163       -1.1595353063
 H         -5.5954285426       -0.1404167390       -1.9768613191
 H         -5.6829477891       -2.6176974509       -2.2705819552
 H         -5.2231069112       -4.0852343448       -0.3426140215
 H         -4.6911135849       -3.1119802866        1.8596786514
 H         -4.6145557434       -0.6356980820        2.1208111820
 H         -3.0648703499        1.7603674069        1.4969523743
 H         -3.4161034828        1.4412092099       -2.0840422535
 H         -1.8397659566        0.1159827347       -3.4707520309
 H          0.0528964900       -1.0526053001       -2.4044955224
 H          0.8747365498       -2.0800488268       -0.3680848716
 C          0.5119734623       -1.5134000083        1.6377288769
 C          1.6749590536       -1.8877638847        2.5057995004
 C          0.9073157277       -0.6316062538        2.7826673742
 H          0.2664141328       -0.6068727899        3.6524386546
 H          1.3682912301        0.3171137032        2.5567701468
 H          1.5676887092       -2.7201084720        3.1847830668
 H          2.6627486620       -1.7973968740        2.0776399166
 H         -0.3941427598       -2.0975129825        1.7679214455
