  62
        -98.93498505
 C         -1.6785718635       -1.0010928797        0.0492205955
 C         -2.9651654983       -1.3699832584        0.5214526066
 C         -4.1103070325       -0.8556112476       -0.2354422319
 C         -3.8996377731       -0.0895056918       -1.3205428504
 C         -4.9616025700        0.4969351613       -2.2108469165
 C         -5.5467974209        1.8188802946       -1.6953982532
 C         -6.4709487481        1.6929162143       -0.4834560523
 H         -6.9766330757        2.6534174016       -0.3658425007
 H         -7.2371497776        0.9447811062       -0.6890240555
 C         -5.7521009563        1.3498812302        0.8288968083
 H         -4.6834181805        1.5512092322        0.7224139766
 H         -6.1210485054        1.9988829650        1.6263774389
 C         -5.9398338763       -0.0936273728        1.2960445123
 H         -5.3591449800       -0.2352841887        2.2110013249
 H         -6.9915247760       -0.2678570102        1.5337990917
 C         -5.4868274765       -1.1501091648        0.2798610180
 H         -5.4533688679       -2.1188645725        0.7840984938
 H         -6.1970768020       -1.2085477119       -0.5445527973
 H         -4.7226167909        2.4956286399       -1.4573696328
 H         -6.1158355968        2.2645918536       -2.5146734956
 H         -4.4881537087        0.6838679560       -3.1771708546
 H         -5.7641075325       -0.2278715083       -2.3509246836
 O         -2.6532773935        0.2311121135       -1.7537037602
 C         -1.5123479554       -0.1936389892       -1.0774277006
 O         -0.4549933691        0.2100082072       -1.5903774250
 O         -3.1485217623       -2.1017219390        1.5313839239
 C         -0.4828982166       -1.5018378141        0.8506280076
 C          0.2542730959       -0.3339093853        1.4594401574
 C         -0.1856523102        0.0957417569        2.7122012959
 C          0.3923568681        1.1794408866        3.3431549143
 C          1.4443291921        1.8518590358        2.7493993681
 C          1.8958676014        1.4376473419        1.5010645550
 C          1.2962879979        0.3600339446        0.8581963768
 H          1.6249839247        0.1153436781       -0.1354874924
 N          2.9900796249        2.0813109617        0.9234383376
 S          3.6288682648        1.8253154017       -0.5856648111
 O          4.7543450943        2.7385045189       -0.6233313761
 O          2.6599945340        1.9919090833       -1.6408388019
 C          4.2436457257        0.1552698328       -0.5475703108
 C          4.8797095507       -0.2990222068        0.5909709482
 C          5.3958558275       -1.5847332769        0.6007771832
 C          5.2729194726       -2.3882437251       -0.5225918279
 C          4.6356225863       -1.9160334406       -1.6587277740
 C          4.1163824703       -0.6310712809       -1.6742477276
 H          3.6032363691       -0.2262960048       -2.5326535609
 H          4.5369229000       -2.5415542484       -2.5311021721
 H          5.6747191816       -3.3889439403       -0.5124354828
 H          5.8900046806       -1.9562754432        1.4840019798
 H          4.9584354424        0.3510321886        1.4466336933
 H          3.3447148204        2.8991484357        1.3912982338
 H          1.9095553293        2.6929262081        3.2400270148
 H          0.0275775224        1.4987473011        4.3076373078
 H         -1.0060048290       -0.4277165367        3.1830364914
 H         -0.9539616138       -2.0302443712        1.6949403983
 C          0.3037362465       -2.5797482726        0.1164175673
 C          1.1970892007       -2.3808264260       -1.0694487686
 C          1.7850201779       -2.7638666125        0.2545513762
 H          2.1667650113       -3.7667662845        0.3711099968
 H          2.3371303634       -2.0158352788        0.8015322359
 H          1.1573458551       -3.1317712949       -1.8461463418
 H          1.3332906646       -1.3846013921       -1.4552263866
 H         -0.2845965663       -3.4941493812        0.0869193789
