  62
        -98.94625816
 C         -1.2009653197       -1.0570345335        0.5776487732
 C         -1.7432146667       -0.6872661148       -0.6772695710
 C         -2.5385758922        0.5487759506       -0.6826047404
 C         -2.6295776970        1.2943243977        0.4326222297
 C         -3.4086811352        2.5729384854        0.5832495930
 C         -4.8971049442        2.3571217413        0.8913597242
 C         -5.7380891554        1.8606006341       -0.2855328154
 H         -6.7858486475        1.9659443884        0.0029808687
 H         -5.5725559286        2.5070825513       -1.1480108094
 C         -5.4803090586        0.3991169572       -0.6781858396
 H         -4.9691104228       -0.1136990144        0.1398458725
 H         -6.4348280718       -0.1107779962       -0.8272626428
 C         -4.6671162341        0.2193242119       -1.9602862937
 H         -5.2305423947        0.6120576592       -2.8096161240
 H         -4.5179759428       -0.8512246718       -2.1222824173
 C         -3.2879689357        0.8918633943       -1.9347735316
 H         -2.7102155854        0.5160445215       -2.7829560675
 H         -3.3951821786        1.9716968313       -2.0342524280
 H         -4.9850229255        1.6556424686        1.7241768628
 H         -5.3042611344        3.3157922172        1.2209215289
 H         -2.9606076826        3.1157292131        1.4181092750
 H         -3.3144247361        3.1752513076       -0.3208566271
 O         -1.9862303200        0.9661354203        1.5846332398
 C         -1.2820051374       -0.2190223453        1.6913845797
 O         -0.7687902002       -0.4114493670        2.8136198727
 H          1.5900599176       -0.9335899690        1.6307857938
 C          1.8444376412       -1.4191019286        0.6966815696
 C          0.8999612762       -2.2371202394        0.0864817805
 C          1.2254787200       -2.8433953243       -1.1189053611
 C          2.4667616405       -2.6311834290       -1.6962861864
 C          3.4067544374       -1.8219976589       -1.0841052682
 C          3.0880970679       -1.2116856158        0.1225867174
 N          4.0390036418       -0.3680722605        0.7447551513
 S          4.3126876944        1.0893518761       -0.0325177909
 O          4.8318936023        0.8200455331       -1.3481537866
 O          5.1622949383        1.8547468695        0.8501856390
 C          2.7075178298        1.8584117883       -0.1506372187
 C          1.8330769513        1.4381021229       -1.1332961506
 C          0.5683348631        2.0007423806       -1.1871523760
 C          0.2039425583        2.9701375062       -0.2658421733
 C          1.0906770987        3.3766294921        0.7187196468
 C          2.3533588403        2.8107118305        0.7837171699
 H          3.0750912973        3.0983245985        1.5315468131
 H          0.7999107984        4.1274349548        1.4358636408
 H         -0.7790443142        3.4097443067       -0.3164050295
 H         -0.1304498458        1.6726473404       -1.9403748558
 H          2.1490978767        0.6887286068       -1.8408488584
 H          3.8183416308       -0.1795309749        1.7134029927
 H          4.3705754063       -1.6349400760       -1.5286010611
 H          2.7053736190       -3.1044328217       -2.6366839531
 H          0.5016397767       -3.4680011565       -1.6151020734
 C         -0.4458292940       -2.3657291222        0.7556846527
 H         -0.2702762052       -2.4641630307        1.8359805224
 C         -1.2580767889       -3.5533364534        0.2868195405
 C         -0.8700081454       -4.9290981976        0.7354049655
 C         -2.1126047679       -4.2875918925        1.2739607451
 H         -3.0709303245       -4.6627588547        0.9473905909
 H         -2.1067630675       -3.9410789585        2.2974677398
 H         -0.0187066532       -5.0171407995        1.3935920669
 H         -0.9744917131       -5.7480563753        0.0403564080
 H         -1.6498312311       -3.4367824117       -0.7155320639
 O         -1.5903825908       -1.3466792446       -1.7366215224
