  62
        -98.94429785
 C         -2.2345368515       -1.1095595995        0.2803542293
 C         -2.3532080397        0.0108014101       -0.5774308229
 C         -3.2090816302        1.1012978578       -0.0906122914
 C         -3.7885872906        1.0177287709        1.1198403403
 C         -4.6568310674        2.0634432995        1.7649372263
 C         -6.1273843832        2.0131574405        1.3279780464
 C         -6.4009849134        2.5023757690       -0.0947634558
 H         -7.4821933883        2.6194518771       -0.1906096672
 H         -5.9535320454        3.4874136912       -0.2312247207
 C         -5.9080060387        1.5537160451       -1.1962698674
 H         -5.7194310539        0.5662408538       -0.7690283272
 H         -6.6893767925        1.4329949802       -1.9498339558
 C         -4.6483787585        2.0260589685       -1.9222737756
 H         -4.8615918358        2.9499296499       -2.4645842648
 H         -4.3670062244        1.2636549458       -2.6530898643
 C         -3.4440659997        2.2676736573       -1.0028494448
 H         -2.5532878269        2.3891776454       -1.6246596049
 H         -3.5888321104        3.1795558838       -0.4236623934
 H         -6.4887829838        0.9881063211        1.4369118496
 H         -6.6932865685        2.6407541468        2.0201904941
 H         -4.6107951007        1.8826811135        2.8410509299
 H         -4.2482550185        3.0540458275        1.5622964644
 O         -3.6254933215       -0.0609779552        1.9300302671
 C         -2.8645500178       -1.1445405478        1.5292885925
 O         -2.8247420919       -2.0725023020        2.3614942008
 H          0.2629041296       -0.7411210400       -1.5082057935
 C          0.7637997756       -1.1656900010       -0.6511791802
 C          0.0641277240       -2.0133670049        0.1957999447
 C          0.7128805618       -2.5144011144        1.3188162080
 C          2.0280055553       -2.1748706320        1.5828979806
 C          2.7196063175       -1.3242135741        0.7387178278
 C          2.0755892356       -0.8087292730       -0.3779720387
 N          2.7631280070        0.0813698058       -1.2282363324
 S          3.3600837633        1.4775264124       -0.5037461983
 O          2.5769035538        1.8527225634        0.6520709341
 O          3.4502066425        2.4555146952       -1.5662702829
 C          5.0065007316        1.0179562014       -0.0036234575
 C          5.3858504050        1.1438455429        1.3183153044
 C          6.6746463900        0.7854893716        1.6824479874
 C          7.5561601233        0.3110800722        0.7231668223
 C          7.1602690366        0.1932577205       -0.6010179705
 C          5.8738400558        0.5506191914       -0.9718039468
 H          5.5262977863        0.4779160774       -1.9887369760
 H          7.8487070207       -0.1761441681       -1.3438724872
 H          8.5577578972        0.0316579523        1.0095791405
 H          6.9839682344        0.8768880376        2.7112587047
 H          4.6631799640        1.5112527326        2.0295624844
 H          2.2229263217        0.3303521374       -2.0459245729
 H          3.7412418301       -1.0484863784        0.9437723221
 H          2.5185694877       -2.5727029898        2.4581826797
 H          0.1682908479       -3.1559468704        1.9967327546
 C         -1.3903047276       -2.3312855618       -0.0567481519
 H         -1.6927749676       -3.1059835508        0.6600695374
 C         -1.6326836403       -2.8548490872       -1.4580274756
 C         -1.2329589440       -4.2613913672       -1.7838733762
 C         -2.6833123867       -3.9001541699       -1.6753026842
 H         -3.2750132947       -3.8551816260       -2.5773664602
 H         -3.2324075752       -4.2445320526       -0.8108144631
 H         -0.7982485858       -4.8522913202       -0.9919295297
 H         -0.8261769632       -4.4677829109       -2.7618127114
 H         -1.5167831339       -2.1052504062       -2.2292159228
 O         -1.7865678081        0.1222860180       -1.6981985429
