  62
        -98.94386711
 C         -1.8551023633       -1.1547533988       -0.4608319360
 C         -1.8929285790        0.0100185042        0.3438137266
 C         -3.1978141441        0.3282127635        0.9378823055
 C         -4.2500548960       -0.4811284417        0.7197244312
 C         -5.6366345240       -0.2996837326        1.2752064294
 C         -6.5148973131        0.6596600944        0.4601673741
 C         -6.1511862092        2.1399284433        0.5839345914
 H         -6.9729473545        2.7088122927        0.1442796076
 H         -6.0956194403        2.4120740017        1.6384909701
 C         -4.8458196816        2.5327787166       -0.1217475814
 H         -4.5684780992        1.7522691842       -0.8339427005
 H         -5.0043868583        3.4484368400       -0.6958600616
 C         -3.6675746559        2.7857816623        0.8188277594
 H         -2.7895167542        3.0177497018        0.2112101640
 H         -3.8804112981        3.6526733525        1.4483095244
 C         -3.3178411343        1.5982112928        1.7250454984
 H         -4.0658404277        1.4913813698        2.5104288702
 H         -2.3483908777        1.7932450858        2.1904904359
 H         -6.4763434686        0.3612959654       -0.5901113043
 H         -7.5437747793        0.5303818673        0.8040440112
 H         -5.5762513519        0.0477779810        2.3070916463
 H         -6.1060542968       -1.2858891562        1.2679554256
 O         -4.1648859907       -1.6056290267       -0.0408174059
 C         -2.9767346721       -1.9585811661       -0.6613842794
 O         -3.0434539972       -2.9994699982       -1.3474559038
 O         -0.8956874150        0.7434672813        0.5596190310
 C         -0.5668508160       -1.5568485430       -1.1522471210
 C          0.5547717010       -1.7574184788       -0.1612195935
 C          0.2890601559       -2.2650312386        1.1067865035
 C          1.3022974250       -2.4359290773        2.0315270675
 C          2.6105581114       -2.1210471347        1.7081655040
 C          2.8919259731       -1.6420183572        0.4374398017
 C          1.8712203489       -1.4630551098       -0.4880405810
 H          2.1099639529       -1.0827924038       -1.4696708065
 N          4.2306918990       -1.3205816798        0.1117400354
 S          4.8120465041        0.1020368515        0.7849076625
 O          6.1825539474        0.2198254577        0.3411736584
 O          4.5974293897        0.0603846756        2.2077361888
 C          3.8210223921        1.3761046209        0.0270253958
 C          2.5197046721        1.5482658606        0.4540040997
 C          1.7118704352        2.4589896872       -0.2086154591
 C          2.2192975834        3.1822382403       -1.2768499301
 C          3.5323902851        3.0048894737       -1.6882141962
 C          4.3400501361        2.0858647634       -1.0387409154
 H          5.3628158534        1.9082367509       -1.3302800818
 H          3.9236558443        3.5724340257       -2.5174275214
 H          1.5855208950        3.8868766920       -1.7926940111
 H          0.6854764331        2.5635825035        0.1050040283
 H          2.1422714201        0.9746572594        1.2848771859
 H          4.4027426126       -1.2994312747       -0.8846602546
 H          3.4101975129       -2.2252831815        2.4229273054
 H          1.0711270874       -2.8174684790        3.0148119457
 H         -0.7306353416       -2.5138748010        1.3679164220
 H         -0.7707317848       -2.5234385789       -1.6369661329
 C         -0.2229357606       -0.5354428410       -2.2205053408
 C          0.4179177045       -0.9572825864       -3.5078741013
 C         -1.0165623943       -0.5242758306       -3.4909575276
 H         -1.2765469015        0.4268682708       -3.9303922107
 H         -1.7810181548       -1.2800323780       -3.6021040741
 H          1.1432304312       -0.2991796237       -3.9629615204
 H          0.6237362687       -2.0081818578       -3.6470049176
 H          0.0605966869        0.4222642690       -1.7986050875
