  62
        -98.93816276
 C          1.9859637602       -0.8625741794       -0.1798952480
 C          2.3618254966        0.3967186683        0.3419632533
 C          3.6913772450        0.8985139707       -0.0558468730
 C          4.4465689322        0.1679173638       -0.8936192312
 C          5.8373556489        0.4720415200       -1.3772751355
 C          6.8854091096       -0.2057371843       -0.4783141681
 C          7.3099421706        0.6087122018        0.7431000489
 H          7.9456035467       -0.0335830774        1.3569725227
 H          7.9182483833        1.4547344759        0.4163081599
 C          6.1632757727        1.1371788171        1.6088994169
 H          5.4084107937        0.3590121263        1.7350250905
 H          6.5666081240        1.3596344513        2.5987685863
 C          5.5140520784        2.4080508850        1.0408011203
 H          6.1479883860        2.8086750255        0.2499232735
 H          5.4729690763        3.1720963739        1.8200200026
 C          4.0809290104        2.2346586939        0.5155760084
 H          3.8794278929        3.0068952601       -0.2345871368
 H          3.3716303039        2.4036195685        1.3320242847
 H          7.7772308502       -0.4116116369       -1.0736626850
 H          6.4782926204       -1.1676773215       -0.1564816554
 H          5.9162932022        0.0507257979       -2.3816546975
 H          6.0008046852        1.5440985522       -1.4337264300
 O          4.0357740916       -1.0304503395       -1.3920942164
 C          2.8105634252       -1.5711292550       -1.0572617523
 O          2.5695764475       -2.6713799053       -1.5924493465
 O          1.6389954363        1.0779400729        1.1166835766
 C          0.6394413824       -1.4905250904        0.1449020665
 C         -0.4403235944       -0.6887530374       -0.5394749938
 C         -0.7273502764       -0.9363173368       -1.8786849067
 C         -1.6941146360       -0.2035323991       -2.5419281222
 C         -2.3937893745        0.7928053187       -1.8835622541
 C         -2.1074169080        1.0520649271       -0.5503082280
 C         -1.1446198042        0.3077923000        0.1179668298
 H         -0.9215117155        0.5302196504        1.1491418857
 N         -2.8290838808        2.0551975574        0.1264497371
 S         -4.4961154049        1.8895863475        0.1037328055
 O         -5.0121709720        2.3825937280       -1.1486862442
 O         -4.9712887340        2.5620445867        1.2923336948
 C         -4.7639590485        0.1291788227        0.2199610777
 C         -4.3975040258       -0.5064807700        1.3898666042
 C         -4.5303861567       -1.8823643658        1.4752772045
 C         -5.0202061223       -2.5964470381        0.3923398893
 C         -5.3861129264       -1.9434967398       -0.7741574835
 C         -5.2547405221       -0.5669506022       -0.8653589571
 H         -5.5245540817       -0.0203842540       -1.7540324454
 H         -5.7674757794       -2.5016854804       -1.6139546092
 H         -5.1168633839       -3.6686555199        0.4595923171
 H         -4.2464597881       -2.3934015953        2.3812147933
 H         -4.0253760242        0.0801692120        2.2143981912
 H         -2.4965633094        2.2186339753        1.0659175874
 H         -3.1528933812        1.3750535257       -2.3806355154
 H         -1.9062531137       -0.4088911829       -3.5801105266
 H         -0.1734013087       -1.7081211965       -2.3949291451
 H          0.6588195876       -2.4875399753       -0.3145064517
 C          0.4213340452       -1.6452474564        1.6362675893
 C         -0.7312022039       -2.4718807337        2.1205067536
 C          0.6717343639       -2.9735501258        2.2811150409
 H          1.1040281474       -2.9917893335        3.2704971566
 H          1.0020993747       -3.7831678948        1.6468745655
 H         -1.2628845668       -2.1471620849        3.0017598984
 H         -1.3563823015       -2.9370811325        1.3735020754
 H          0.6864228056       -0.7627279844        2.2045716414
