  62
        -98.94467708
 C         -2.6054749334       -0.9023824181        0.2482751809
 C         -2.5078082157       -0.0223797857       -0.8571435700
 C         -2.8695529063        1.3791787715       -0.5991336706
 C         -3.3042232881        1.7423510351        0.6200190614
 C         -3.6543103745        3.1425025899        1.0297310964
 C         -2.4444776552        3.8652339095        1.6376953800
 C         -1.1692287597        3.7646666325        0.7994941110
 H         -0.4017384072        4.3555984695        1.3047144567
 H         -0.8133841768        2.7310430706        0.7893201421
 C         -1.3151674929        4.2554697077       -0.6473707093
 H         -2.1959667680        4.8929649655       -0.7388360370
 H         -0.4431563135        4.8634995977       -0.8974564585
 C         -1.3842345013        3.1362663650       -1.6884284221
 H         -1.2332659298        3.5800913726       -2.6767935647
 H         -0.5612118598        2.4352052873       -1.5173212635
 C         -2.7021707657        2.3508114325       -1.7327249511
 H         -3.5432954736        3.0458615317       -1.7770240649
 H         -2.7031185421        1.7512325678       -2.6477611419
 H         -2.2406230672        3.4334641337        2.6201327452
 H         -2.7060695386        4.9161742210        1.7750217287
 H         -4.0188836592        3.6887321771        0.1620880458
 H         -4.4480008323        3.0923728197        1.7772143545
 O         -3.4391587075        0.8614322296        1.6430699489
 C         -3.0598512323       -0.4600540598        1.4955489884
 O         -3.1868707113       -1.1442931794        2.5305454241
 H         -0.3194648778       -1.4622268860       -1.5672552620
 C          0.1435346157       -1.8365061731       -0.6664266650
 C         -0.6491708828       -2.3719612941        0.3388932714
 C         -0.0306724556       -2.8208768852        1.5001002467
 C          1.3416581566       -2.7216539623        1.6528115935
 C          2.1217789759       -2.1480760563        0.6634570410
 C          1.5101757282       -1.6969473726       -0.4976168585
 N          2.2851584120       -1.0195960984       -1.4754513138
 S          2.5730331873        0.5812107066       -1.0151637860
 O          1.4895147661        1.1054730976       -0.2141927687
 O          2.8781097463        1.2968743271       -2.2351605004
 C          4.0485557084        0.4357433031       -0.0311676548
 C          4.0037741184        0.6972652992        1.3235698038
 C          5.1623808494        0.5530808678        2.0713998157
 C          6.3369518845        0.1508291427        1.4541057736
 C          6.3650152344       -0.1075366244        0.0914111459
 C          5.2107215368        0.0351948965       -0.6615419994
 H          5.1855000987       -0.1504842165       -1.7223316123
 H          7.2804340475       -0.4202347423       -0.3844538170
 H          7.2359504979        0.0378213266        2.0392070096
 H          5.1421046061        0.7524161482        3.1308331107
 H          3.0655331035        1.0011267494        1.7600679737
 H          1.8219900188       -1.0025282519       -2.3753750639
 H          3.1874762333       -2.0404638069        0.7857110065
 H          1.8061564039       -3.0760541991        2.5602870196
 H         -0.6394752968       -3.2231738041        2.2969992783
 C         -2.1531014635       -2.3572441822        0.2054522987
 H         -2.5783994557       -2.8301049047        1.1004185893
 C         -2.6340064213       -3.1161099130       -1.0140037216
 C         -2.6399298515       -4.6139169076       -0.9755582049
 C         -3.9335645910       -3.8579863306       -0.9477633788
 H         -4.5618530866       -3.8729984655       -1.8255951930
 H         -4.4834081520       -3.8203561340       -0.0185318476
 H         -2.3782142594       -5.1525132892       -1.8732872731
 H         -2.3133385834       -5.0912703525       -0.0640916631
 H         -2.3869808677       -2.6356554500       -1.9510548218
 O         -2.1413607621       -0.3625557976       -2.0157085164
