  62
        -98.94378997
 C          1.4490050797        0.9366732486       -0.4889582150
 C          2.5187061464        1.1126484580        0.4257900520
 C          3.4158532796       -0.0323886519        0.6191879193
 C          3.1637978887       -1.1780796168       -0.0393167762
 C          4.0124483028       -2.4140316457        0.0316555065
 C          5.0899704056       -2.4149887683       -1.0616772755
 C          5.8849964310       -1.1119079396       -1.1448935670
 H          6.6348517034       -1.2379037173       -1.9288037236
 H          5.2174476503       -0.3080824851       -1.4633472917
 C          6.5761848202       -0.7058238695        0.1641605420
 H          6.6409707504       -1.5662575822        0.8311051307
 H          7.5976321858       -0.3925507211       -0.0615616929
 C          5.9064152330        0.4557625480        0.9007697272
 H          5.7533999791        1.2884276140        0.2097237940
 H          6.5878937004        0.8004436223        1.6830443939
 C          4.5650626411        0.1361144697        1.5729943703
 H          4.3012166383        0.9852253554        2.2105141417
 H          4.6711566188       -0.7474063309        2.2064237427
 H          4.6039661822       -2.5828103767       -2.0255709352
 H          5.7701918197       -3.2478976886       -0.8745762335
 H          4.4759393847       -2.4720801574        1.0148394583
 H          3.3641068135       -3.2817718278       -0.1038879749
 O          2.1206058996       -1.3218213827       -0.8910675395
 C          1.2297310061       -0.2812340531       -1.1350399355
 O          0.3288888391       -0.5821503269       -1.9386658596
 O          2.7149621878        2.1914014847        1.0496315894
 C          0.5186566383        2.1232449231       -0.6655524496
 C         -0.5582660771        2.1230944874        0.3924452969
 C         -0.9740417171        3.3082191666        0.9888552536
 C         -1.9631210548        3.2965669865        1.9563624544
 C         -2.5465812384        2.1075986010        2.3539390107
 C         -2.1239766640        0.9130049222        1.7780566443
 C         -1.1464584608        0.9326186752        0.7937518962
 H         -0.8182945479        0.0025052497        0.3605061584
 N         -2.6561116334       -0.3037233346        2.2108089536
 S         -2.6265210123       -1.7247343483        1.3412337231
 O         -3.4251183482       -2.6246495363        2.1474439883
 O         -1.2694462193       -2.1386605417        1.0888486707
 C         -3.5091365392       -1.3780045596       -0.1686519812
 C         -4.8816427775       -1.2397551394       -0.0675154618
 C         -5.6174139734       -0.9634290059       -1.2067774650
 C         -4.9713144738       -0.8337719945       -2.4276739449
 C         -3.5964401654       -0.9790134708       -2.5118798063
 C         -2.8504954774       -1.2499713045       -1.3734260957
 H         -1.7770622753       -1.3499350561       -1.4232205576
 H         -3.0867914790       -0.8812302763       -3.4569129151
 H         -5.5417014676       -0.6210046003       -3.3180345157
 H         -6.6877746130       -0.8526651829       -1.1418550345
 H         -5.3462529572       -1.3712730279        0.8960945933
 H         -3.4317599941       -0.2480444999        2.8518572140
 H         -3.3079326822        2.0965884510        3.1184211894
 H         -2.2789954035        4.2226157037        2.4119940934
 H         -0.5019533248        4.2379164740        0.7075504763
 H          1.1495380847        3.0085518199       -0.4823376014
 C         -0.0477322555        2.2504843406       -2.0725212463
 C         -1.4716161841        1.9403647498       -2.4116091125
 C         -0.9971284561        3.3605240615       -2.4152801175
 H         -0.8768706660        3.8635982575       -3.3626841757
 H         -1.3325333691        3.9998046221       -1.6135918829
 H         -1.6649854229        1.4514685468       -3.3533014521
 H         -2.1239339826        1.6174441608       -1.6147382723
 H          0.6901938159        1.9938531863       -2.8255940053
