  62
        -98.93862246
 C          2.2456086502        1.0047283402       -0.4783176795
 C          3.4951532138        1.0052357627        0.1961890562
 C          4.4269316380       -0.0696463576       -0.1568178998
 C          4.0758547293       -0.9726809821       -1.0897246466
 C          4.9215289661       -2.1178443102       -1.5775099506
 C          4.8515027587       -3.3684626583       -0.6904402094
 C          5.5751959906       -3.2558255676        0.6520173806
 H          5.6327827456       -4.2628906597        1.0697180256
 H          6.5968463653       -2.9136512602        0.4845810508
 C          4.8829775007       -2.3384181204        1.6698202635
 H          3.8488450740       -2.1661310649        1.3617205652
 H          4.8475907633       -2.8344437998        2.6423460817
 C          5.5689748591       -0.9877255858        1.8747714467
 H          6.5591019296       -1.1415709393        2.3093328407
 H          4.9748585354       -0.4064578763        2.5843639125
 C          5.7215051277       -0.1572900926        0.5938144878
 H          6.0113320831        0.8579390319        0.8750784677
 H          6.4998869757       -0.5814745196       -0.0399262483
 H          5.2993516320       -4.1911401437       -1.2527142787
 H          3.8011246557       -3.6157777308       -0.5194322755
 H          5.9583425512       -1.7932100946       -1.6702759024
 H          4.5477180033       -2.3782289184       -2.5700815185
 O          2.8790611552       -0.9286387178       -1.7314660373
 C          1.9275196094        0.0408205787       -1.4352130492
 O          0.8813009302       -0.0759099654       -2.1028116605
 O          3.8199731985        1.8740591974        1.0488272873
 C          1.2655275942        2.1015296331       -0.0960360151
 C          0.2491250009        1.5788107280        0.8919413217
 C          0.3640901502        1.9095977866        2.2385838939
 C         -0.5561322753        1.4468347135        3.1612255954
 C         -1.6184309382        0.6611869166        2.7545936633
 C         -1.7338015027        0.3100792785        1.4132380135
 C         -0.7983578634        0.7599321831        0.4917707588
 H         -0.8916306625        0.4561113857       -0.5397611873
 N         -2.7833844701       -0.5157316740        0.9869564481
 S         -3.4732396244       -0.2664235832       -0.5336754063
 O         -2.8318305064       -1.1328300435       -1.4896988431
 O         -3.4947343255        1.1446825663       -0.8414730254
 C         -5.1340444501       -0.8458228583       -0.2279322979
 C         -6.1070016313        0.0654547006        0.1373996612
 C         -7.3883250334       -0.3913554582        0.4031572263
 C         -7.6731451521       -1.7448988938        0.3027792102
 C         -6.6867501110       -2.6476417995       -0.0659153802
 C         -5.4037426753       -2.1972310562       -0.3340965136
 H         -4.6071889495       -2.8585489917       -0.6336553569
 H         -6.9122893214       -3.6987671185       -0.1466092093
 H         -8.6708917102       -2.0982159576        0.5097517670
 H         -8.1580432928        0.3085007752        0.6859320737
 H         -5.8405826452        1.1086700138        0.1931052239
 H         -3.4816736640       -0.6739765681        1.7001739117
 H         -2.3475977414        0.3099666318        3.4689289004
 H         -0.4532021514        1.7115292696        4.2026445565
 H          1.1931305630        2.5252742236        2.5564192932
 H          1.8758091945        2.8524657252        0.4254885567
 C          0.6019349847        2.7719139515       -1.2808400012
 C          0.0518379692        4.1554403785       -1.1128113396
 C          1.2810825827        3.9326655009       -1.9407446942
 H          1.2087895484        4.0279993626       -3.0137603603
 H          2.2315231684        4.2497847985       -1.5365332040
 H         -0.8720560184        4.4022102907       -1.6131240827
 H          0.1699801874        4.6259519324       -0.1482847767
 H          0.0550441702        2.0903506259       -1.9197600123
