  62
        -98.94891262
 C         -2.2568307817       -0.7898254764        0.0742389009
 C         -1.5861142625       -0.0760752241       -0.9476075638
 C         -1.9336248692        1.3451416816       -1.0747459011
 C         -2.8132481921        1.8867625350       -0.2133519520
 C         -3.2644017035        3.3184748416       -0.2309766560
 C         -2.3992115946        4.2063423552        0.6724015621
 C         -0.8955694918        4.0466195379        0.4472881297
 H         -0.3914257296        4.7641116494        1.0996128408
 H         -0.5801102288        3.0522593214        0.7720421344
 C         -0.4391556811        4.2660466990       -1.0017298384
 H         -1.2016206407        4.8165019561       -1.5552566983
 H          0.4637655779        4.8803397406       -0.9905956401
 C         -0.0907305647        2.9759307678       -1.7466738907
 H          0.5578670010        2.3660227585       -1.1126574460
 H          0.4739363754        3.2396890085       -2.6451976629
 C         -1.2846300311        2.1188607656       -2.1875395681
 H         -2.0182773580        2.7450845806       -2.7006527680
 H         -0.9151373767        1.3709489303       -2.8953022576
 H         -2.6847949450        5.2470119378        0.5043221654
 H         -2.6159327401        3.9589120475        1.7144067663
 H         -3.2312473654        3.6865723200       -1.2548493599
 H         -4.2961310576        3.3538108726        0.1245636339
 O         -3.3908709471        1.1836661856        0.7958890450
 C         -3.1168302060       -0.1624146592        0.9726547780
 O         -3.6943861840       -0.6831451045        1.9511907591
 H         -0.3946707213       -0.9733495678        1.9121827087
 C          0.1664328239       -1.6847249035        1.3175224053
 C         -0.5072806758       -2.4912491419        0.4081934009
 C          0.2293117615       -3.4023937965       -0.3373258330
 C          1.6067831462       -3.4657388033       -0.2106596888
 C          2.2784162494       -2.6102275636        0.6440959212
 C          1.5454832846       -1.7196640860        1.4158926396
 N          2.2460706651       -0.7729912626        2.2240692765
 S          2.2793021657        0.7234956711        1.4340821274
 O          3.0375134178        1.6059974367        2.2965053551
 O          0.9441002412        1.1791213332        1.1119818429
 C          3.2038663357        0.3501553807       -0.0353146999
 C          4.5821540107        0.4225046043        0.0297099415
 C          5.3244306362        0.0890751456       -1.0910544360
 C          4.6775597919       -0.3140724941       -2.2500822061
 C          3.2939361509       -0.3829974828       -2.2966252042
 C          2.5426946537       -0.0507219693       -1.1793416748
 H          1.4642793372       -0.1059062012       -1.1915940559
 H          2.7853306296       -0.6993837085       -3.1930294099
 H          5.2544473973       -0.5766428591       -3.1229153452
 H          6.4007067933        0.1418321709       -1.0572460858
 H          5.0358279335        0.7446306027        0.9526229881
 H          1.8071784341       -0.6321481923        3.1252111265
 H          3.3534922845       -2.6166152791        0.7200843171
 H          2.1654361665       -4.1712133983       -0.8058420828
 H         -0.2750063757       -4.0492953036       -1.0363497188
 C         -1.9920705591       -2.2761310313        0.2565027916
 H         -2.4884109483       -2.5634374197        1.1949179263
 C         -2.6063647074       -3.0585427658       -0.8853576135
 C         -3.0423683701       -4.4773645208       -0.6792346781
 C         -4.0655229681       -3.3929973453       -0.8302021727
 H         -4.6400181786       -3.3461097776       -1.7430329965
 H         -4.6130438653       -3.0749626955        0.0454227596
 H         -2.9013697425       -4.9062613915        0.3012833342
 H         -2.9191851752       -5.1785143229       -1.4905846368
 H         -2.1937383548       -2.7812991994       -1.8485473145
 O         -0.7541754458       -0.6055474498       -1.7298594996
