  62
        -98.94293269
 C         -1.4541076468       -1.4919956846        0.1589339056
 C         -2.5032380472       -1.0169332217        0.9855148351
 C         -3.3189890426        0.0748466325        0.4375095574
 C         -3.0048476819        0.5880568881       -0.7659927109
 C         -3.7597183457        1.6932185937       -1.4465768802
 C         -3.1914298168        3.0768351643       -1.1044896319
 C         -2.9442557888        3.2908323388        0.3882814523
 H         -2.1671429360        2.6003295016        0.7244222747
 H         -2.5542534828        4.3034147580        0.5139595868
 C         -4.1917503959        3.1174692112        1.2660795442
 H         -4.2283118948        3.9353078007        1.9889872933
 H         -5.0900173265        3.1892241437        0.6515539520
 C         -4.2320012458        1.8148885612        2.0671610405
 H         -3.2938368181        1.6903598168        2.6141291163
 H         -5.0319327829        1.8969597161        2.8080133004
 C         -4.4911185199        0.5395082018        1.2553095425
 H         -4.7019176244       -0.2674717399        1.9634753662
 H         -5.3716441471        0.6788690712        0.6242322356
 H         -2.2441766440        3.2003245975       -1.6314295641
 H         -3.8858876613        3.8349018909       -1.4713777739
 H         -3.6913775409        1.5387860293       -2.5247445050
 H         -4.8059212026        1.6376984772       -1.1503798233
 O         -1.9404222607        0.1654810409       -1.4916572609
 C         -1.1372614178       -0.8842518427       -1.0578902695
 O         -0.2061846637       -1.1586517822       -1.8332231622
 O         -2.7528354268       -1.4923099597        2.1263231993
 C         -0.6390577719       -2.6688051893        0.6653825259
 C          0.8343214613       -2.4041971564        0.4904547527
 C          1.6662877569       -3.1743674437       -0.3104189757
 C          3.0076194336       -2.8570192447       -0.4382314667
 C          3.5486048379       -1.7739186527        0.2290787431
 C          2.7238664329       -0.9947199195        1.0305963652
 C          1.3819649744       -1.3151612998        1.1586626834
 H          0.7397396299       -0.7029084089        1.7806932186
 N          3.2654362720        0.1188687665        1.7093285888
 S          3.9164702692        1.3343115929        0.7565181460
 O          5.1030865964        0.8375409938        0.1088505989
 O          4.0977821690        2.4589971215        1.6465497181
 C          2.6570500501        1.7017527908       -0.4490393116
 C          2.6023358220        0.9735354148       -1.6201286891
 C          1.5772662623        1.2259677539       -2.5170107041
 C          0.6321179307        2.1975064898       -2.2289556523
 C          0.7022444241        2.9220533778       -1.0491083589
 C          1.7195959364        2.6681781359       -0.1444915730
 H          1.8116772975        3.2111025585        0.7829254872
 H         -0.0326273344        3.6797180726       -0.8265466852
 H         -0.1675062838        2.3822118106       -2.9292870954
 H          1.5088960042        0.6530274073       -3.4268200804
 H          3.3548733089        0.2267046748       -1.8123323652
 H          2.6204207632        0.5296382799        2.3699565326
 H          4.5880295227       -1.5061554969        0.1288823010
 H          3.6410458003       -3.4614217307       -1.0697835149
 H          1.2602818206       -4.0098243203       -0.8560987352
 H         -0.8498844620       -2.7017649915        1.7476898223
 C         -1.0782804947       -4.0125448721        0.1018413544
 C         -2.5012888885       -4.2523870675       -0.3026123861
 C         -1.4248987590       -4.2048990960       -1.3430648818
 H         -1.1348790318       -5.1294981087       -1.8205610864
 H         -1.3698438353       -3.3437468038       -1.9901203925
 H         -2.9481385697       -5.2059944335       -0.0644198303
 H         -3.1882413684       -3.4210885005       -0.2377531780
 H         -0.5763662454       -4.8390167170        0.5958749703
