  62
        -98.93918876
 C         -1.0468114644       -1.3031844460       -0.2394246872
 C         -1.9678863740       -0.9753147355        0.7904569144
 C         -2.8730499358        0.1508372958        0.5309743529
 C         -2.7809985588        0.8178631871       -0.6328577549
 C         -3.5969898439        2.0097248079       -1.0601506088
 C         -5.1081630931        1.7695500439       -1.2419127805
 C         -5.9543793191        2.0954838688       -0.0048119321
 H         -5.4138269731        2.8136338342        0.6129336846
 H         -6.8724760320        2.5904805568       -0.3279311586
 C         -6.3720604422        0.8966920493        0.8522458579
 H         -7.2011787803        0.3802135866        0.3630990152
 H         -6.7420074590        1.2803262702        1.8055955105
 C         -5.2830714141       -0.1412298677        1.1251368122
 H         -5.1223208596       -0.7486742236        0.2312450421
 H         -5.6469840589       -0.8215674587        1.8976782257
 C         -3.9266379593        0.4487823853        1.5575906768
 H         -4.0116541041        1.5216948707        1.7232070769
 H         -3.5976317088       -0.0195254275        2.4871828803
 H         -5.4351038061        2.4170464396       -2.0571022786
 H         -5.2778502979        0.7412142925       -1.5598496321
 H         -3.4464904437        2.8199929067       -0.3431085345
 H         -3.1724614260        2.3257146431       -2.0151668125
 O         -1.8637575154        0.4936687860       -1.5812654238
 C         -0.9826801083       -0.5631534663       -1.4197999734
 O         -0.2166376514       -0.7147632305       -2.3937731695
 H          1.6790113745       -1.0690152391       -1.3811395487
 C          2.0370134364       -1.3125494772       -0.3919469747
 C          1.2293896550       -2.0503816394        0.4618550046
 C          1.6990433341       -2.3323587042        1.7391386107
 C          2.9447735792       -1.8880274245        2.1488926868
 C          3.7417173837       -1.1420648775        1.2983770402
 C          3.2750496616       -0.8495467799        0.0242035756
 N          4.0499602527       -0.0258869057       -0.8291871384
 S          4.1174142174        1.5684651753       -0.3106377460
 O          4.5313504056        2.3449814085       -1.4567763411
 O          4.9720479642        1.6390817695        0.8471828824
 C          2.4399377379        1.9685300910        0.1490733999
 C          1.5724569692        2.4180693224       -0.8254767945
 C          0.2523012638        2.6651107607       -0.4863084129
 C         -0.1790996442        2.4383421712        0.8112147184
 C          0.7016876518        1.9770279131        1.7766171638
 C          2.0261291448        1.7424217927        1.4466567745
 H          2.7430524230        1.3938216654        2.1716140157
 H          0.3569730260        1.7943799742        2.7816562279
 H         -1.2100521945        2.6165573570        1.0732228844
 H         -0.4365921197        3.0185746710       -1.2367717131
 H          1.9427523715        2.5769722084       -1.8258853149
 H          3.7077264814       -0.0380456312       -1.7810469260
 H          4.7016625683       -0.7606225255        1.6067727617
 H          3.2955801000       -2.1174182664        3.1434867403
 H          1.0720459151       -2.8896049293        2.4195636434
 C         -0.1416068440       -2.4977295599        0.0174053447
 H         -0.6064141962       -3.0322945050        0.8564707181
 C         -0.0498347615       -3.4456096717       -1.1625894482
 C          0.3659401268       -4.8649011555       -0.9231137715
 C         -1.0516864379       -4.5513412283       -1.2949177805
 H         -1.3992612011       -4.8155774353       -2.2824336953
 H         -1.8098148072       -4.6337699679       -0.5297247922
 H          0.5683829345       -5.1618276066        0.0947269609
 H          0.9954724379       -5.3474257363       -1.6548441093
 H          0.2852651460       -2.9697980167       -2.0749334697
 O         -2.0321344512       -1.6029002401        1.8800111264
