  62
        -98.94085595
 C         -2.4066271501       -1.0750356061       -0.2218193076
 C         -3.7279201804       -1.1564911431        0.2803244162
 C         -4.7095742925       -0.2595293586       -0.3427027429
 C         -4.3108564921        0.5710963999       -1.3235876913
 C         -5.1931206957        1.5756049592       -2.0055792294
 C         -5.1464584136        2.9338580485       -1.2917964831
 C         -5.3525060914        2.8451295788        0.2203744259
 H         -4.5070844058        2.3139765210        0.6642589841
 H         -5.3304231776        3.8646281056        0.6116398562
 C         -6.6604864478        2.1624841681        0.6443828494
 H         -7.3572781992        2.1437725191       -0.1943364948
 H         -7.1229273940        2.7542833428        1.4371162606
 C         -6.4869920174        0.7442043449        1.1906235088
 H         -5.7200833302        0.7431965072        1.9693674179
 H         -7.4279430918        0.4424221933        1.6582562216
 C         -6.1256409423       -0.3292385507        0.1563044552
 H         -6.2235094556       -1.3042660391        0.6425117019
 H         -6.8298208369       -0.2885425425       -0.6770600370
 H         -4.1708686822        3.3894378427       -1.4774248719
 H         -5.9114193654        3.5790815665       -1.7276503090
 H         -6.2141310505        1.1994252830       -2.0259455090
 H         -4.8409353062        1.7022390097       -3.0306542347
 O         -3.0332654828        0.6206423395       -1.7802140355
 C         -2.0476434106       -0.1937744449       -1.2414446291
 O         -0.9221930603       -0.0442347960       -1.7550463602
 O         -4.0690841120       -1.9424027229        1.2045853019
 C         -1.3396235387       -1.9695023839        0.3852950870
 C         -0.2738985241       -1.1062861262        1.0136577759
 C         -0.6332134585       -0.2711651778        2.0691362451
 C          0.2958057231        0.5658335266        2.6549345413
 C          1.6053285943        0.5885948687        2.2053618264
 C          1.9734785696       -0.2364571567        1.1525331948
 C          1.0362227668       -1.0810404360        0.5669833066
 H          1.3346936351       -1.7097006195       -0.2570083421
 N          3.3064914844       -0.2526996354        0.6980753973
 S          4.1321070157        1.2109784820        0.5369101568
 O          4.4715927573        1.6928239901        1.8526969991
 O          3.3893315776        2.1285867497       -0.2988381480
 C          5.6053723944        0.6531963538       -0.2956812984
 C          6.6230742232        0.1018472367        0.4594849607
 C          7.7586908277       -0.3622354601       -0.1847565168
 C          7.8569827592       -0.2684349551       -1.5651496267
 C          6.8280102300        0.2889488102       -2.3092801643
 C          5.6884751258        0.7537320683       -1.6712913973
 H          4.8670473285        1.2005982303       -2.2088292739
 H          6.9080386473        0.3630524499       -3.3819349380
 H          8.7420096836       -0.6295674689       -2.0648018981
 H          8.5620029714       -0.7941174779        0.3899608082
 H          6.5053490175        0.0582046372        1.5294602133
 H          3.3998467561       -0.7932801378       -0.1519101879
 H          2.3365077242        1.2448787526        2.6480642309
 H          0.0016664624        1.2106129438        3.4698918921
 H         -1.6574133982       -0.2827636872        2.4171881507
 H         -1.8468493663       -2.5234162281        1.1881295474
 C         -0.8188711877       -2.9589581505       -0.6347587238
 C         -0.1459351451       -4.2176632368       -0.1772455939
 C         -1.5129573966       -4.2778291879       -0.7878086324
 H         -1.6187271379       -4.6912791147       -1.7795718265
 H         -2.3563054760       -4.4733695619       -0.1419746396
 H          0.6874615421       -4.5957276407       -0.7497147252
 H         -0.0581035422       -4.3757945614        0.8868593011
 H         -0.4561388515       -2.4809499177       -1.5377503947
