  62
        -98.93785268
 C         -2.5898429635       -1.1410679445        0.5346185579
 C         -3.4558261373       -0.8654025657       -0.5527627816
 C         -4.5886824982        0.0280439777       -0.2558297140
 C         -4.7421584856        0.5214469304        0.9853073826
 C         -5.8112608236        1.4892189401        1.4006048909
 C         -5.3372897345        2.9409635873        1.2437678950
 C         -4.7089191263        3.2425050019       -0.1168490806
 H         -4.4413751648        4.3013692290       -0.1235457322
 H         -3.7796678615        2.6761899672       -0.2138915537
 C         -5.6163584567        2.9369821144       -1.3167358641
 H         -6.6532678542        2.8606924841       -0.9873743063
 H         -5.5601512442        3.7712092687       -2.0192476093
 C         -5.2373431063        1.6747451688       -2.0935038874
 H         -4.1744120058        1.7054696629       -2.3456019158
 H         -5.7964863681        1.6730048177       -3.0329739694
 C         -5.5264826068        0.3442196171       -1.3871279783
 H         -6.5631591134        0.3262355511       -1.0449951063
 H         -5.3918861481       -0.4563414536       -2.1204405778
 H         -6.1904689484        3.6018615164        1.4074720177
 H         -4.5937535297        3.1475176449        2.0170734883
 H         -6.7017552043        1.3195831024        0.7984925960
 H         -6.0522815282        1.3060870845        2.4491197329
 O         -3.8962398510        0.2267906566        2.0059531290
 C         -2.8033515513       -0.5964015125        1.8039611376
 O         -2.1049931554       -0.7777636855        2.8226382573
 H          1.0246157469       -1.8210407137        1.6457718080
 C          0.9913435483       -1.2378968616        0.7349146352
 C         -0.1694945115       -1.2277196078       -0.0237449685
 C         -0.2022836269       -0.4583760006       -1.1830149549
 C          0.9044307846        0.2767286993       -1.5662858393
 C          2.0595785030        0.2673381998       -0.8034720382
 C          2.1026521670       -0.4947716482        0.3557052885
 N          3.2643964898       -0.4939282139        1.1435492839
 S          4.7490403991       -0.7425486861        0.4011439688
 O          4.6086458385       -1.5303489847       -0.8010352338
 O          5.5992493982       -1.2896437782        1.4354036936
 C          5.3086720984        0.8986369274       -0.0018699957
 C          5.4263716264        1.8159098315        1.0238827806
 C          5.8676002908        3.0959526810        0.7293500171
 C          6.1846933853        3.4343570861       -0.5778864840
 C          6.0652477508        2.5007441039       -1.5958670514
 C          5.6236786546        1.2185863537       -1.3078885797
 H          5.5124860536        0.4612458883       -2.0676564467
 H          6.3135840673        2.7655309320       -2.6111192059
 H          6.5277766039        4.4315570108       -0.8042851809
 H          5.9625821007        3.8244800214        1.5184204384
 H          5.1741871746        1.5125795950        2.0263963140
 H          3.1862102498       -1.0341353524        1.9927916012
 H          2.9226222283        0.8417135930       -1.0978426391
 H          0.8670017924        0.8676746028       -2.4689615233
 H         -1.1023848744       -0.4492245210       -1.7788579064
 C         -1.3648958221       -2.0336957068        0.4156533357
 H         -1.1673048516       -2.3826401549        1.4417999650
 C         -1.6048180792       -3.2720149823       -0.4376925857
 C         -0.9456924530       -3.5216602761       -1.7573561258
 C         -0.5299536202       -4.3125054877       -0.5559291758
 H         -0.8054912582       -5.3544388411       -0.4945734245
 H          0.4321005955       -4.0843556224       -0.1202959602
 H         -1.5326451048       -4.0056415103       -2.5228543924
 H         -0.2596721087       -2.7823642151       -2.1392198062
 H         -2.6211662676       -3.6385595239       -0.3364216534
 O         -3.3108165136       -1.3269329719       -1.7128358659
