  62
        -98.94443786
 C         -1.9734555063       -1.1461924068       -0.1527551229
 C         -2.4097425096        0.0189790046       -0.8282725760
 C         -3.8581864358        0.2620419105       -0.8023738173
 C         -4.6750059950       -0.6134525714       -0.1891267628
 C         -6.1738406599       -0.5143501334       -0.1008851420
 C         -6.6737667611        0.3769833838        1.0442850531
 C         -6.4716531439        1.8785283487        0.8366605161
 H         -6.8805214738        2.1688389482       -0.1316284042
 H         -7.0571200441        2.3893158015        1.6037172251
 C         -5.0117234067        2.3418519549        0.9407897004
 H         -4.9569643661        3.2376065356        1.5634859969
 H         -4.4183393939        1.5708265628        1.4375317842
 C         -4.3568233957        2.6814111775       -0.3982613909
 H         -3.3153355386        2.9562807746       -0.2111849452
 H         -4.8581363840        3.5436271952       -0.8437817087
 C         -4.3662240466        1.5321374392       -1.4146582222
 H         -3.6955886713        1.7959197131       -2.2362941381
 H         -5.3702437412        1.3898691654       -1.8140243100
 H         -6.1802457318        0.0675174317        1.9684000339
 H         -7.7436521084        0.1889174492        1.1597478938
 H         -6.5733518968       -0.1507847145       -1.0479820223
 H         -6.5429937528       -1.5284945865        0.0662192413
 O         -4.2161482929       -1.7356005534        0.4267275894
 C         -2.8605846887       -2.0163885619        0.4810552599
 O         -2.5752556725       -3.0544776649        1.1118887337
 O         -1.6382781865        0.8149282901       -1.4240434840
 C         -0.4934557453       -1.4853436326       -0.0967490045
 C          0.2563283232       -0.3416582728        0.5411591299
 C         -0.1057237650        0.0469847720        1.8294889700
 C          0.5211752174        1.1089952986        2.4499769791
 C          1.5307339647        1.8008848446        1.8028777952
 C          1.9022859193        1.4205039306        0.5194311557
 C          1.2709699766        0.3488909257       -0.1006577099
 H          1.5647129137        0.0921442373       -1.1037703990
 N          2.9042241921        2.1255267094       -0.1644165281
 S          4.0769966226        1.3406320763       -1.0563474544
 O          5.0742679774        2.3569434984       -1.3092059073
 O          3.4983288127        0.7112499605       -2.2149340381
 C          4.7373827385        0.1132154168        0.0561380538
 C          4.2378114479       -1.1729468658        0.0325301664
 C          4.7218824133       -2.0946437749        0.9477792130
 C          5.6901854564       -1.7171079461        1.8650221558
 C          6.1845611300       -0.4213902393        1.8733320500
 C          5.7018626120        0.5055177886        0.9642585356
 H          6.0668462404        1.5191975183        0.9288210764
 H          6.9415329633       -0.1322356817        2.5844560459
 H          6.0634744543       -2.4384432066        2.5747575071
 H          4.3400089274       -3.1031586799        0.9405761263
 H          3.4896516470       -1.4327942645       -0.6976926336
 H          3.3019338598        2.8951897927        0.3533474640
 H          2.0159998220        2.6379278445        2.2815051046
 H          0.2241777838        1.4022782537        3.4456718151
 H         -0.8983787831       -0.4924093364        2.3308409575
 H         -0.4094830516       -2.3615351586        0.5622791723
 C          0.0095728265       -1.8639221363       -1.4732423780
 C          1.1666302207       -2.8046142198       -1.6169817206
 C         -0.2176899913       -3.2594869377       -1.9680832772
 H         -0.4682171189       -3.4030292561       -3.0084352386
 H         -0.7161221826       -3.9468745982       -1.2998412293
 H          1.8712423456       -2.6359047381       -2.4182359592
 H          1.6054001285       -3.1957360176       -0.7112011730
 H         -0.0888969128       -1.0611446678       -2.1951948969
