  62
        -98.94754386
 C         -1.3281894741       -1.6327107245       -0.4976601451
 C         -1.1913298266       -0.3224539843       -1.0209194668
 C         -2.3806610918        0.5385079042       -0.9160626966
 C         -3.5078492073        0.0564880342       -0.3648054601
 C         -4.7791379511        0.8318636583       -0.1756530176
 C         -4.8277909517        1.5049062015        1.2022583770
 C         -3.5647174097        2.2929115771        1.5500192134
 H         -3.7304635987        2.7626151345        2.5223827091
 H         -2.7258103068        1.6023961163        1.6703453658
 C         -3.1828404146        3.3668387739        0.5223761463
 H         -4.0424497067        3.6043742063       -0.1061768783
 H         -2.9086962559        4.2784914488        1.0578482676
 C         -1.9893695884        2.9943465460       -0.3597818251
 H         -1.1735114163        2.6372157040        0.2754028913
 H         -1.6480020444        3.9027674667       -0.8654504633
 C         -2.2608368574        1.9409325393       -1.4422283109
 H         -3.1509825365        2.2185968126       -2.0112507642
 H         -1.4038440398        1.9320925020       -2.1220991068
 H         -5.6922561163        2.1710885433        1.2307123405
 H         -4.9684521164        0.7323225233        1.9617173129
 H         -4.8604009436        1.5813651833       -0.9604412693
 H         -5.6176719060        0.1381324699       -0.2597297949
 O         -3.6074357619       -1.2080724265        0.1184420727
 C         -2.5235550776       -2.0670127225        0.0833021148
 O         -2.7497941254       -3.1893048659        0.5814694072
 H          1.2480757490       -0.4467933201        0.0238054639
 C          1.3946796184       -1.2000931799        0.7792513634
 C          0.7232475873       -2.4094125167        0.6757777050
 C          0.9138730235       -3.3669606281        1.6649660882
 C          1.7508564481       -3.1104639048        2.7368713666
 C          2.3983445084       -1.8931414573        2.8503146209
 C          2.2120961210       -0.9293532902        1.8654997025
 N          2.8590328153        0.3124584749        1.9303331170
 S          2.0958880720        1.6809693099        1.3357655235
 O          2.7918973485        2.7808778416        1.9764134392
 O          0.6704273133        1.6386760010        1.5688575829
 C          2.4797837414        1.7226505437       -0.4021442785
 C          3.5150286963        0.9615990590       -0.9050694751
 C          3.8109955360        1.0470950328       -2.2561039511
 C          3.0771567560        1.8905033778       -3.0749752655
 C          2.0472795859        2.6550044321       -2.5513667414
 C          1.7453921112        2.5731459231       -1.2021549235
 H          0.9437776488        3.1421515749       -0.7602028786
 H          1.4726116724        3.3081746522       -3.1887393886
 H          3.3051396765        1.9490553953       -4.1278464263
 H          4.6095241396        0.4494688853       -2.6662418098
 H          4.0606948185        0.3048407821       -0.2478140608
 H          3.3641224713        0.4994354697        2.7837988279
 H          3.0384052399       -1.6865373357        3.6946425719
 H          1.8908693516       -3.8613436362        3.4998086787
 H          0.3869526894       -4.3077216697        1.5991805284
 C         -0.2032767448       -2.6585497525       -0.4898384988
 H         -0.6894313492       -3.6307876211       -0.3309860836
 C          0.5727218057       -2.7161351478       -1.7915864568
 C          1.3333804581       -3.9622155382       -2.1272752550
 C          0.0930758344       -3.6115027138       -2.8922133906
 H          0.1908824856       -3.2704865164       -3.9117389111
 H         -0.8001954724       -4.1919202755       -2.7107177706
 H          1.2810911399       -4.7845188892       -1.4297165501
 H          2.2870872153       -3.8645525456       -2.6222097116
 H          1.0058019040       -1.7664597495       -2.0756638404
 O         -0.1489195021        0.1268627860       -1.5663874685
