  62
        -98.94641737
 C         -1.5263545253       -1.1121836453        0.0179910160
 C         -2.5549868546       -0.7948734133        0.9421029119
 C         -3.2721952709        0.4646718334        0.7072834663
 C         -2.9007905337        1.2495446777       -0.3202138062
 C         -3.5675819002        2.5391704518       -0.6998597885
 C         -4.6894593356        2.3036130031       -1.7210716908
 C         -5.6569492212        1.1865108833       -1.3300171873
 H         -6.4218318300        1.1318886083       -2.1077593156
 H         -5.1235650938        0.2331606289       -1.3375529333
 C         -6.3300174851        1.3787226573        0.0362087060
 H         -6.2472153726        2.4208148174        0.3470336452
 H         -7.3941573288        1.1544415606       -0.0632715002
 C         -5.7859539314        0.4745605415        1.1439685126
 H         -6.4678604049        0.5339187429        1.9963988518
 H         -5.7822270505       -0.5631048637        0.8006791779
 C         -4.3818831350        0.8190168105        1.6565415222
 H         -4.3379926678        1.8766521909        1.9238900027
 H         -4.2037187705        0.2285400454        2.5599008185
 H         -4.2362611816        2.0429927965       -2.6804218833
 H         -5.2412449103        3.2366163774       -1.8492387198
 H         -3.9697532629        3.0115383145        0.1941353416
 H         -2.8204946592        3.1992357741       -1.1439717489
 O         -1.8916756258        0.9277493094       -1.1673139836
 C         -1.1873221465       -0.2611319352       -1.0336619467
 O         -0.3090380309       -0.4218654083       -1.9025373668
 H          1.5096777426       -2.0077516967       -1.2674145531
 C          1.6712108107       -1.7979080323       -0.2223829170
 C          0.6441574857       -1.9892103261        0.6887033757
 C          0.8761633715       -1.6867604547        2.0277449250
 C          2.1045589931       -1.2060456654        2.4417843396
 C          3.1184268070       -0.9876791089        1.5248510092
 C          2.8893180220       -1.2728315450        0.1856412281
 N          3.8877039336       -0.9835328982       -0.7637397011
 S          4.5714544630        0.5422422163       -0.6587553202
 O          4.9229184196        0.9047220964       -2.0144462905
 O          5.6700491176        0.5051673508        0.2761625322
 C          3.2973254951        1.6250605290       -0.0270036164
 C          2.0704685263        1.6615821810       -0.6592518164
 C          1.0860314030        2.4986711577       -0.1593369924
 C          1.3405317765        3.2837525256        0.9540985151
 C          2.5803405610        3.2411429648        1.5728489507
 C          3.5679466405        2.4035355151        1.0806242124
 H          4.5422994608        2.3320501372        1.5362291676
 H          2.7775248449        3.8530536403        2.4382865176
 H          0.5668461105        3.9290158771        1.3397270972
 H          0.1212184397        2.5175175150       -0.6417062076
 H          1.8714786092        1.0367671980       -1.5159381910
 H          3.5970732170       -1.1733268342       -1.7125397367
 H          4.0761361623       -0.5919631123        1.8225517785
 H          2.2719487007       -0.9847028285        3.4846680068
 H          0.0726121537       -1.8179854655        2.7385497111
 C         -0.7393655201       -2.3937816042        0.2458109424
 H         -1.2374879246       -2.8973018110        1.0845528418
 C         -0.7594073043       -3.3129116387       -0.9568414409
 C         -0.3037914645       -4.7318556744       -0.7980847918
 C         -1.7563052281       -4.4300655358       -1.0085730428
 H         -2.2027793281       -4.6780422993       -1.9599787279
 H         -2.4280387320       -4.5407614114       -0.1699771519
 H          0.2490796339       -5.1906085491       -1.6035463271
 H          0.0121763520       -5.0448237763        0.1855769686
 H         -0.5360388788       -2.8112183548       -1.8903021481
 O         -2.8575802053       -1.5324326601        1.9168233046
