  62
        -98.94309212
 C          1.1958715378        1.1237379078       -0.1082073713
 C          1.7688584048        0.2148514350        0.8151670514
 C          2.6374556849       -0.8204577066        0.2444908346
 C          2.8366139540       -0.8651816287       -1.0851184005
 C          3.6772987614       -1.8735858495       -1.8205965546
 C          5.1734156610       -1.5322063724       -1.8541666384
 C          5.9135266678       -1.7176825076       -0.5287843977
 H          5.7193296364       -2.7188279424       -0.1425182415
 H          6.9813832253       -1.6554115829       -0.7478411099
 C          5.5679211644       -0.6732344337        0.5418741237
 H          6.4878945859       -0.3098002667        1.0053497180
 H          5.0872547479        0.1866652016        0.0695008454
 C          4.6680320360       -1.1894820906        1.6645675850
 H          5.1943600062       -1.9624645554        2.2288906600
 H          4.4594733766       -0.3594006243        2.3440500591
 C          3.3260643791       -1.7602031856        1.1874548548
 H          3.4776611255       -2.7311321590        0.7162719211
 H          2.6803689994       -1.8875252666        2.0591473360
 H          5.2887329209       -0.5006191603       -2.1950653089
 H          5.6388954512       -2.1814194179       -2.5995127193
 H          3.5388040897       -2.8607823665       -1.3785902916
 H          3.3073428494       -1.8979854283       -2.8480881023
 O          2.2597064253        0.0194509026       -1.9421523641
 C          1.4379123618        1.0416579350       -1.4798791035
 O          0.9877125360        1.7759536812       -2.3798142215
 H         -0.8737885621        0.1189342377       -0.9109754430
 C         -1.5880847723        0.8900168349       -0.6524110473
 C         -1.1593693691        2.0283423267        0.0114003805
 C         -2.1109512419        2.9923476428        0.3347124794
 C         -3.4432736804        2.8141124453        0.0089445608
 C         -3.8629509158        1.6739149442       -0.6555705205
 C         -2.9210021451        0.7172424117       -0.9971665050
 N         -3.3412393787       -0.4692121147       -1.6538948225
 S         -3.9673517356       -1.6052436766       -0.5896543640
 O         -4.0769244576       -2.8378029401       -1.3366513014
 O         -5.1876970022       -1.0800947138       -0.0340712144
 C         -2.7244268185       -1.7516740087        0.6806845770
 C         -2.7879957766       -0.9192068454        1.7799059460
 C         -1.7620848666       -0.9602627845        2.7096773144
 C         -0.6915471005       -1.8203752852        2.5223464830
 C         -0.6400595856       -2.6464074012        1.4102089548
 C         -1.6625253207       -2.6097633806        0.4759968145
 H         -1.6590820866       -3.2373284737       -0.4016703338
 H          0.1990787095       -3.3079515419        1.2632433441
 H          0.1143170201       -1.8310516020        3.2384208591
 H         -1.7897202043       -0.3123477079        3.5706399537
 H         -3.6346133245       -0.2603673632        1.8864804209
 H         -2.5934403974       -0.9034036868       -2.1779805700
 H         -4.8980859085        1.5056970589       -0.9032132625
 H         -4.1654434122        3.5702117719        0.2758899994
 H         -1.8008916011        3.8867347197        0.8510396543
 C          0.2823345813        2.2020172321        0.4317849340
 H          0.3201196337        2.0859911167        1.5259208081
 C          0.7969861009        3.5862311968        0.0757838500
 C          0.7484828484        4.7042939620        1.0724688347
 C          2.0607189446        4.0756962579        0.7161059671
 H          2.7619659533        4.6341528052        0.1145232818
 H          2.5291665661        3.4279704124        1.4431067909
 H          0.5446889339        5.7024049822        0.7153243567
 H          0.3463884402        4.4923007527        2.0518553696
 H          0.6460544343        3.8293077528       -0.9696380494
 O          1.5612339474        0.2664800335        2.0552451365
