  62
        -98.95130969
 C          2.3258307404        0.2365021380        0.1065913190
 C          1.6065068896       -0.3696429415       -0.9501655707
 C          1.5602304483       -1.8364323614       -0.9353981605
 C          2.1146739881       -2.5086903418        0.0897195294
 C          2.1732515769       -4.0045199618        0.2424641396
 C          0.8931589365       -4.6246781807        0.8180200500
 C         -0.2825094438       -4.7075926598       -0.1558160996
 H         -1.0223047043       -5.3731400591        0.2935989306
 H          0.0496717955       -5.1686385702       -1.0870536197
 C         -0.9548150428       -3.3608050493       -0.4559709896
 H         -0.6969783120       -2.6359778594        0.3200086202
 H         -2.0410027629       -3.4817112584       -0.4182956793
 C         -0.6167450327       -2.7703771997       -1.8241487398
 H         -1.1309737419       -1.8109062893       -1.9095348198
 H         -0.9972566935       -3.4283998095       -2.6093176696
 C          0.8792303174       -2.5392305510       -2.0727226602
 H          0.9813963777       -1.9047658812       -2.9569543403
 H          1.3742324166       -3.4910683314       -2.2681060603
 H          0.5922250172       -4.0528820603        1.6994765800
 H          1.1397965857       -5.6377815308        1.1450469601
 H          2.9967906569       -4.2125832524        0.9292123894
 H          2.3998858162       -4.4635987921       -0.7206605104
 O          2.7329285789       -1.8846024422        1.1277579892
 C          2.8569662201       -0.5060935923        1.1598075690
 O          3.4593798407       -0.0655104127        2.1619982887
 O          1.0449685699        0.2805781889       -1.8710447106
 C          2.4799656917        1.7468867479        0.1550688488
 C          1.1216953422        2.4021115691        0.2217748791
 C          0.7677844230        3.5223652293       -0.5200398309
 C         -0.5046320766        4.0581340704       -0.4157394606
 C         -1.4545169468        3.4771883013        0.4048655897
 C         -1.1071458975        2.3603239511        1.1559397297
 C          0.1800244820        1.8538302500        1.0828263694
 H          0.4392555115        0.9896974098        1.6770731195
 N         -2.0431241279        1.7065613319        1.9849974201
 S         -2.3933528493        0.1099914822        1.6059027004
 O         -3.4477032794       -0.2700920268        2.5216056807
 O         -1.1919778800       -0.6814719688        1.6547445601
 C         -3.0544023497        0.1926586825       -0.0494625095
 C         -4.4233900798        0.1018937337       -0.2166842291
 C         -4.9579190401        0.2415185540       -1.4868681589
 C         -4.1189979602        0.4825330931       -2.5648685192
 C         -2.7489854500        0.5776248920       -2.3797857996
 C         -2.2054192798        0.4315404617       -1.1118630697
 H         -1.1399539797        0.4958670708       -0.9555700200
 H         -2.0852375101        0.7627204313       -3.2093684098
 H         -4.5333736603        0.5968650934       -3.5540817191
 H         -6.0236167602        0.1661412948       -1.6313806986
 H         -5.0351809497       -0.0832176857        0.6514886911
 H         -2.9095218174        2.2157787927        2.0977084903
 H         -2.4547199965        3.8790290021        0.4650967699
 H         -0.7657506360        4.9292671105       -0.9967583107
 H          1.4870688931        3.9733735286       -1.1837264312
 H          3.0088439021        1.9662971276        1.0946516886
 C          3.3249253117        2.2260402271       -1.0073603515
 C          4.1770447328        3.4508283864       -0.8691253219
 C          4.8147433416        2.0958197658       -0.9186695319
 H          5.3617979512        1.8122021353       -1.8051342020
 H          5.2217779316        1.6853939656       -0.0055707520
 H          4.2916250531        4.0993806362       -1.7245360520
 H          4.1617150135        3.9669168865        0.0789954781
 H          2.8624665913        2.0269659373       -1.9670876213
