  62
        -98.93775536
 C          1.3589180400        1.6399831591        0.1969219309
 C          2.2792315698        1.0393327192        1.0909523011
 C          3.1025147002       -0.0570557806        0.5585102712
 C          2.9182399307       -0.4658976005       -0.7104997089
 C          3.6748216411       -1.4928706902       -1.5242880588
 C          4.4151947512       -2.6395468101       -0.8372118487
 C          3.5444683711       -3.5715395304        0.0024172709
 H          2.8512662814       -4.0986484005       -0.6569909094
 H          4.1995372711       -4.3168786104        0.4594358909
 C          2.7242761306       -2.8971399508        1.1003576207
 H          1.9358927706       -2.2891784109        0.6513195606
 H          2.2312035606       -3.6830197709        1.6789023204
 C          3.5221429001       -2.0347654007        2.0789767411
 H          4.3589128801       -2.6099266406        2.4796896212
 H          2.8578688498       -1.7890982010        2.9118415009
 C          4.0608935200       -0.7053603405        1.5138198814
 H          5.0339279802       -0.8361355803        1.0450681317
 H          4.1893017297       -0.0099666506        2.3481696916
 H          5.2321582609       -2.2544683201       -0.2335914784
 H          4.8664380015       -3.2365759099       -1.6345933087
 H          2.9465843014       -1.9041079902       -2.2282810691
 H          4.4007805012       -0.9308536199       -2.1229527885
 O          1.9777080708        0.1004157195       -1.5160031491
 C          1.1653839905        1.1438820592       -1.0926928992
 O          0.3414236607        1.5135037992       -1.9469682094
 O          2.4135946694        1.4088734390        2.2890463512
 C          0.5024055696        2.7775314888        0.7246188309
 C         -0.9478455803        2.4860934886        0.4380986904
 C         -1.7301121102        3.2367951286       -0.4281408798
 C         -3.0439679000        2.8765233983       -0.6754641202
 C         -3.6067906900        1.7725579281       -0.0617117405
 C         -2.8316452301        1.0150866082        0.8076680396
 C         -1.5159046702        1.3752291584        1.0514058800
 H         -0.9097842703        0.7788237084        1.7230901901
 N         -3.3980122801       -0.1125385121        1.4425065192
 S         -3.8567854695       -1.3968632120        0.4728443589
 O         -4.8373061493       -0.9379863721       -0.4764756013
 O         -4.2822820796       -2.4334864622        1.3855344086
 C         -2.3760767491       -1.9180544216       -0.3745997007
 C         -1.9250989689       -1.1870343813       -1.4553554505
 C         -0.7627993687       -1.5876019110       -2.0951158002
 C         -0.0772561886       -2.7043274409       -1.6437827901
 C         -0.5376274888       -3.4232582512       -0.5513027504
 C         -1.6962236490       -3.0248762715        0.0945309793
 H         -2.0952756392       -3.5572930617        0.9429784491
 H          0.0024297913       -4.2887692411       -0.2019722903
 H          0.8232282216       -3.0161545307       -2.1493820599
 H         -0.3913381585       -1.0104680008       -2.9268197500
 H         -2.4769260090       -0.3215135314       -1.7847533405
 H         -2.8318484202       -0.4647853021        2.2020982294
 H         -4.6227500999        1.4711289679       -0.2584005909
 H         -3.6385400799        3.4634150783       -1.3591874403
 H         -1.3025322802        4.0881555487       -0.9315006195
 H          0.6452587893        2.7398001487        1.8175896809
 C          0.9437203494        4.1640642790        0.2835075612
 C          2.3927020694        4.4634582593        0.0436035317
 C          1.4277709198        4.4641519693       -1.1020642586
 H          1.1579543197        5.4137202993       -1.5410967586
 H          1.4640324602        3.6519674994       -1.8102373887
 H          2.7879815991        5.4073163694        0.3878771319
 H          3.0904790096        3.6423194295        0.1230337218
 H          0.3678955691        4.9427080188        0.7748617511
