  62
        -98.93539198
 C         -2.4925445703       -0.8581009312        0.7813393194
 C         -2.8868033401       -0.4214284612       -0.5083243007
 C         -3.7099589200        0.7995012089       -0.5468302509
 C         -4.0104670902        1.4360093889        0.5986991991
 C         -4.7991047901        2.7091600090        0.6951878789
 C         -3.8810644400        3.9385027489        0.6468756989
 C         -2.8702132898        3.9099452788       -0.4996377109
 H         -2.1660957499        3.0908134388       -0.3353347707
 H         -2.2986613398        4.8393764088       -0.4525939208
 C         -3.4957354696        3.7647694888       -1.8938972910
 H         -3.0135564295        4.4740259187       -2.5698449709
 H         -4.5543881796        4.0239290688       -1.8542414112
 C         -3.3374168896        2.3771804987       -2.5184993909
 H         -2.2885619196        2.0718209887       -2.4769225907
 H         -3.6154030494        2.4456545287       -3.5736515809
 C         -4.1874241998        1.2634439888       -1.8942938010
 H         -4.1232371497        0.3914063088       -2.5518437509
 H         -5.2312047998        1.5807197689       -1.8447704811
 H         -3.3298413502        3.9959434189        1.5883232390
 H         -4.5039604700        4.8308444790        0.5629604088
 H         -5.5179334700        2.7468341790       -0.1210236213
 H         -5.3395060803        2.7073165691        1.6433699588
 O         -3.5771542004        1.0114079290        1.8134961591
 C         -2.8019679205       -0.1298314611        1.9331223193
 O         -2.4480036007       -0.3845503510        3.1023327894
 H          0.4012477796       -0.4408940813        1.0007727499
 C          0.5023521997       -1.1600305114        0.1961439299
 C         -0.4893476303       -2.1185933413        0.0249646398
 C         -0.3532191302       -3.0376652414       -1.0059987601
 C          0.7433076999       -2.9842120215       -1.8487011400
 C          1.7241298600       -2.0246173415       -1.6805897998
 C          1.6012066299       -1.1031771515       -0.6483875699
 N          2.5913824099       -0.1152198615       -0.4740577798
 S          4.1968562199       -0.6432512716       -0.5480170195
 O          4.5850319401       -0.7285237317       -1.9334854695
 O          4.3563189297       -1.8532327116        0.2273981506
 C          5.0517475898        0.7117456883        0.2318005405
 C          5.3234390900        1.8434431583       -0.5135281795
 C          5.9765147700        2.9038406983        0.0941536406
 C          6.3451161498        2.8155257783        1.4284797307
 C          6.0664299896        1.6728081384        2.1630625907
 C          5.4117035796        0.6091565784        1.5620497806
 H          5.1832557795       -0.3019502916        2.0917292606
 H          6.3568009094        1.6056918684        3.1991962607
 H          6.8558275898        3.6411283283        1.8984169707
 H          6.1975752701        3.7930449082       -0.4738648494
 H          5.0283911502        1.8628281283       -1.5496168295
 H          2.4351088298        0.4309176485        0.3625152801
 H          2.5846851201       -1.9789941416       -2.3285128297
 H          0.8347290500       -3.6996117415       -2.6522988599
 H         -1.1179131402       -3.7799603013       -1.1648768102
 C         -1.6536472505       -2.1087522012        0.9849687596
 H         -1.2428544306       -2.0089928112        2.0034407997
 C         -2.4502554505       -3.4049644711        0.9721530695
 C         -3.8507225106       -3.4475580410        1.5049335493
 C         -3.5989624204       -3.6467698711        0.0419865394
 H         -3.7229607404       -4.6390311611       -0.3669591106
 H         -3.8677415402       -2.8575926711       -0.6415695207
 H         -4.2897983506       -2.5143840710        1.8274150392
 H         -4.1488001608       -4.2983510010        2.0989394293
 H         -1.8227654506       -4.2608685112        1.2026943997
 O         -2.5838437500       -1.0086372313       -1.5776347506
