  62
        -98.94244133
 C         -1.3909430010       -1.2593776596       -0.0059690898
 C         -2.4642816210       -0.9029029988        0.8411992599
 C         -3.1095209907        0.3871307111        0.5607073890
 C         -2.6332144704        1.1544244804       -0.4371369215
 C         -3.2276871501        2.4580479302       -0.8893487224
 C         -4.4879102901        2.1970286999       -1.7394172823
 C         -5.7879563300        2.7014064206       -1.1127026128
 H         -5.8364269498        3.7868706906       -1.2213128735
 H         -6.6138961601        2.2749117005       -1.6858012025
 C         -5.9867079302        2.3704047017        0.3695334575
 H         -5.4119699001        3.0672679720        0.9815843070
 H         -7.0394115702        2.5507715021        0.5974368473
 C         -5.6300259206        0.9392683219        0.7914472184
 H         -5.6947964207        0.2597243613       -0.0585175211
 H         -6.3696982907        0.6066068526        1.5225059286
 C         -4.2480940306        0.7922916620        1.4560002886
 H         -3.9898519305        1.7196027523        1.9759547480
 H         -4.3053188309        0.0006788725        2.2094118292
 H         -4.3723031199        2.6710832592       -2.7151959226
 H         -4.5618964303        1.1223365598       -1.9181866416
 H         -3.4667212200        3.0705338708       -0.0226446228
 H         -2.4678203899        2.9732507996       -1.4775362027
 O         -1.5872319805        0.7861315596       -1.2192099412
 C         -0.9316958808       -0.4159413804       -1.0161888203
 O          0.0211291292       -0.6221397612       -1.7930622301
 H          0.4489077090       -0.5565135590        1.5900097199
 C          1.1947705489       -1.2276067395        1.1889533604
 C          0.8047712887       -2.3353858099        0.4471775011
 C          1.7919813785       -3.1807324104       -0.0451873583
 C          3.1302024686       -2.9069220306        0.1794173216
 C          3.5135085188       -1.7760698702        0.8768289109
 C          2.5332587489       -0.9295460696        1.3802877103
 N          2.8638306192        0.2586300407        2.0696459895
 S          2.4667569296        1.6848162103        1.2777044785
 O          2.9941767998        2.7405066407        2.1168432678
 O          1.0513771096        1.7250231905        1.0169019384
 C          3.4119571897        1.6034716091       -0.2333531714
 C          2.9362562096        0.8631589385       -1.2969361709
 C          3.7351123996        0.7325289575       -2.4236442008
 C          4.9826571798        1.3347634072       -2.4673736611
 C          5.4436625799        2.0765562578       -1.3897671615
 C          4.6549999198        2.2078830488       -0.2589349617
 H          4.9688073199        2.7754324793        0.6024228379
 H          6.4128066900        2.5474971776       -1.4259394218
 H          5.5976761898        1.2255232965       -3.3467505910
 H          3.3686419295        0.1545739370       -3.2568461004
 H          1.9591786394        0.4066420187       -1.2484553307
 H          3.8348786392        0.3039140107        2.3497959595
 H          4.5572511888       -1.5459489804        1.0295081608
 H          3.8842937484       -3.5730839510       -0.2105976978
 H          1.5121765284       -4.0538757807       -0.6116295277
 C         -0.6686265414       -2.5732359297        0.2251475612
 H         -1.0965979815       -2.9849177089        1.1519677914
 C         -0.9532324215       -3.5343414004       -0.9119556182
 C         -1.0263400919       -5.0105477602       -0.6620890972
 C         -2.2765817717       -4.2363563301       -0.9484887178
 H         -2.7633558716       -4.3711650206       -1.9027238478
 H         -2.9595234017       -4.0432299594       -0.1339756780
 H         -0.6568793720       -5.6812027608       -1.4231881667
 H         -0.8673442420       -5.3557801195        0.3482691730
 H         -0.5423809714       -3.1915863211       -1.8552329384
 O         -2.8619152112       -1.6310936181        1.7928514704
