  62
        -98.94533187
 C          1.5541804090        1.0384083107        0.2828292904
 C          2.8785713792        1.1777936094        0.7681774714
 C          3.9482152386        0.7844166985       -0.1544415330
 C          3.6358960439        0.3273839460       -1.3806246759
 C          4.6137846782       -0.1000985759       -2.4413407273
 C          5.0990402989       -1.5487303433       -2.2941171262
 C          6.0711262891       -1.7950738704       -1.1395526405
 H          6.4959275383       -2.7901940549       -1.2857881354
 H          6.8914377982       -1.0790377089       -1.1982007532
 C          5.4292140581       -1.7328654332        0.2535747141
 H          5.7682401835       -2.5838629406        0.8487518988
 H          4.3441197094       -1.8222942965        0.1593385404
 C          5.7559037933       -0.4668307313        1.0458508371
 H          6.8260958946       -0.4360895804        1.2619375394
 H          5.2212000757       -0.5116120443        1.9980046304
 C          5.3615719238        0.8381963192        0.3419646848
 H          5.4285720065        1.6525066051        1.0674677529
 H          6.0463790580        1.0440588487       -0.4802425795
 H          4.2278620523       -2.1990083495       -2.1830248066
 H          5.5993578935       -1.8211371195       -3.2263705168
 H          4.0950404938       -0.0070365592       -3.3978938120
 H          5.4709876594        0.5737717838       -2.4433311943
 O          2.3528827331        0.2184613326       -1.8148624432
 C          1.2810157834        0.5456856045       -0.9937671510
 O          0.1685217691        0.3720909710       -1.5253422749
 H         -2.0488824558        0.3418571858        0.5578020717
 C         -1.4931162291       -0.2901094518        1.2265172702
 C         -0.2406268520        0.1022994596        1.6688671228
 C          0.4546045251       -0.7361665110        2.5377759939
 C         -0.0947899912       -1.9339787552        2.9508906238
 C         -1.3413236318       -2.3284580697        2.4938858989
 C         -2.0395527132       -1.5040848695        1.6216047481
 N         -3.3150159650       -1.8594223115        1.1469011299
 S         -3.5775472185       -1.8294797447       -0.5159314597
 O         -4.7510700066       -2.6602591110       -0.6994563027
 O         -2.3977689510       -2.2400107522       -1.2399289042
 C         -4.0160413787       -0.1429241924       -0.8745658447
 C         -5.1892819646        0.3430067398       -0.3309001914
 C         -5.5544362778        1.6538785904       -0.5902840183
 C         -4.7455788358        2.4498977239       -1.3878064981
 C         -3.5735582936        1.9440050400       -1.9288501984
 C         -3.1993911300        0.6332833629       -1.6730348127
 H         -2.2769692575        0.2173541846       -2.0493289982
 H         -2.9397056031        2.5630204337       -2.5443238283
 H         -5.0275128654        3.4716495652       -1.5887225038
 H         -6.4639821026        2.0517931072       -0.1701040287
 H         -5.7900662433       -0.3127228385        0.2769121905
 H         -3.6707234185       -2.7223651530        1.5349113023
 H         -1.7686988650       -3.2689301592        2.8085317881
 H          0.4525179490       -2.5717988016        3.6288509410
 H          1.4338668292       -0.4332462475        2.8820831102
 C          0.4098027064        1.3885306213        1.2205977460
 H          0.8881454129        1.8463637322        2.0981633759
 C         -0.5539416854        2.3829487580        0.6105928678
 C         -1.5434888270        3.0864635729        1.4893604275
 C         -0.3912169243        3.8432107920        0.9021395236
 H         -0.5864097045        4.5501822839        0.1100868662
 H          0.4159817373        4.1354050663        1.5578592741
 H         -1.5175107415        2.8631779844        2.5451054372
 H         -2.5337884780        3.2705848745        1.1013317861
 H         -0.8713383838        2.1105722736       -0.3881902183
 O          3.1531487017        1.6139700639        1.9180098797
