  62
        -98.94850349
 C         -1.2517032096       -1.5126463497        0.4996637706
 C         -2.1665643195       -1.1724850708       -0.5257237999
 C         -3.2027552700       -0.1965338711       -0.1602081608
 C         -3.2310004105        0.3029883297        1.0884981489
 C         -4.2085827211        1.3296513996        1.5811531380
 C         -3.6576186418        2.7525955997        1.4174939572
 C         -3.0965378416        3.0482635391        0.0260960572
 H         -2.7878331220        4.0965423692        0.0196091166
 H         -2.1881429812        2.4598999794       -0.1291832922
 C         -4.0813304012        2.7996253479       -1.1250561929
 H         -5.1021039312        2.7809609077       -0.7404887731
 H         -4.0129178214        3.6354291675       -1.8246886334
 C         -3.8177724904        1.5251792075       -1.9295889420
 H         -2.7625682003        1.4875939878       -2.2143383217
 H         -4.4049612902        1.5775175167       -2.8505593122
 C         -4.1762344199        0.2075552178       -1.2304865513
 H         -4.1433330394       -0.5875793027       -1.9811441707
 H         -5.1915248201        0.2648892276       -0.8327792315
 H         -2.8531035020        2.9006656406        2.1418304873
 H         -4.4574183321        3.4598638795        1.6468500366
 H         -5.1428308010        1.2257082688        1.0326827479
 H         -4.3966163813        1.1438196702        2.6402944581
 O         -2.3376755206       -0.0501206392        2.0474372694
 C         -1.3065691801       -0.9317176590        1.7654389402
 O         -0.5152974703       -1.1187500880        2.7135850005
 O         -2.1206766890       -1.6556314515       -1.6874197496
 C         -0.1059188290       -2.4622919494        0.2063446714
 C          0.7870064210       -1.8948823897       -0.8726970887
 C          1.4750151815       -2.6844844999       -1.7862491980
 C          2.3007373215       -2.1000194302       -2.7312625482
 C          2.4746675809       -0.7281837101       -2.7779426490
 C          1.7927566503        0.0693599702       -1.8663716997
 C          0.9615444903       -0.5201114596       -0.9285710995
 H          0.4178722899        0.1123538706       -0.2449995001
 N          1.9228942596        1.4660470802       -1.8717839906
 S          1.8740778089        2.3100455011       -0.4295145511
 O          0.5317431388        2.3472737008        0.0931726785
 O          2.4604340484        3.5936926912       -0.7519247818
 C          2.9693427591        1.4099402723        0.6534967597
 C          2.4800584192        0.6440164028        1.6910515801
 C          3.3730682293       -0.0788223163        2.4677279808
 C          4.7308811693       -0.0237976559        2.1974197011
 C          5.2087318092        0.7577342337        1.1557547907
 C          4.3216334891        1.4784302628        0.3745623000
 H          4.6534413190        2.1071819224       -0.4356557803
 H          6.2659879193        0.8040175440        0.9503347109
 H          5.4190690995       -0.5909337352        2.8040854516
 H          2.9899487594       -0.6830443360        3.2748696211
 H          1.4196015491        0.6099392224        1.8879364199
 H          2.6172000496        1.8327126501       -2.5054714206
 H          3.1191592509       -0.2769579103       -3.5164053592
 H          2.8226662020       -2.7238586804       -3.4407897877
 H          1.3577471220       -3.7556238200       -1.7631985674
 H          0.4867487408       -2.5181963785        1.1324480916
 C         -0.6290628283       -3.8465545898       -0.1202435978
 C          0.1488651021       -5.0651980692        0.2738861532
 C         -1.1146434382       -4.7160710394        0.9993745426
 H         -1.9919470279       -5.3241202699        0.8378586228
 H         -1.0380499586       -4.3193164587        2.0016364324
 H          0.1374686227       -5.9191970397       -0.3865339563
 H          1.0841956219       -4.9178048185        0.7924610533
 H         -1.1855995681       -3.8699435307       -1.0498263079
