  62
        -98.94679683
 C         -1.1784177440       -1.1216407808       -0.1806431563
 C         -2.0626091446       -0.8322365405        0.8931504815
 C         -2.8827746756        0.3747110002        0.7552564401
 C         -2.7466058189        1.1484424507       -0.3363536214
 C         -3.5059118997        2.4151443092       -0.6255622087
 C         -4.8853969604        2.1818827862       -1.2571526982
 C         -5.9507229460        1.6321478513       -0.3076245640
 H         -5.9945940122        2.2534857169        0.5874691649
 H         -6.9123022362        1.7269161412       -0.8161304509
 C         -5.7474788497        0.1638341053        0.0916879218
 H         -5.0545234624       -0.3112906977       -0.6065593046
 H         -6.6972804898       -0.3697759643        0.0110011483
 C         -5.2329359671       -0.0417377142        1.5165980468
 H         -5.9810704263        0.3100179095        2.2304991448
 H         -5.0922995635       -1.1135352772        1.6778526799
 C         -3.9022465435        0.6612045925        1.8159700745
 H         -4.0598608487        1.7350261071        1.9141833092
 H         -3.5165923113        0.2744404808        2.7622021498
 H         -4.7714582178        1.5056102691       -2.1074974472
 H         -5.2347195406        3.1428338787       -1.6419629596
 H         -3.6226054621        2.9951499442        0.2904513115
 H         -2.9002697000        2.9895293336       -1.3293239463
 O         -1.8607460328        0.8623281611       -1.3233141372
 C         -1.0674607280       -0.2738528240       -1.2829146411
 O         -0.3274678463       -0.3892776165       -2.2814844642
 H          1.5565277094       -1.0617310919       -1.4173148173
 C          1.9053169375       -1.3914432797       -0.4501644754
 C          1.0467788019       -2.1002840200        0.3782315333
 C          1.5061002334       -2.4891629047        1.6310922010
 C          2.7913424867       -2.1778917479        2.0415330906
 C          3.6408202827       -1.4622541630        1.2160966547
 C          3.1850323017       -1.0622248679       -0.0326290902
 N          4.0205066652       -0.2707074240       -0.8586951681
 S          4.2356501875        1.2882446735       -0.2792199717
 O          4.7645232592        2.0552676054       -1.3836584063
 O          5.0553921819        1.2276356686        0.9041357046
 C          2.5979292214        1.8554144784        0.1469504303
 C          2.0945068702        1.5734386596        1.4012869442
 C          0.7987665230        1.9581731258        1.7037269909
 C          0.0363243767        2.6221004883        0.7557714423
 C          0.5555265756        2.8965721070       -0.4995346714
 C          1.8456843871        2.5015867740       -0.8126362550
 H          2.2835403687        2.6945811302       -1.7791034940
 H         -0.0435451093        3.4047994585       -1.2380220638
 H         -0.9711037959        2.9223897834        0.9971434468
 H          0.3846219532        1.7352828520        2.6740621466
 H          2.7210768914        1.0671040455        2.1170686740
 H          3.6720767507       -0.2129841828       -1.8066772614
 H          4.6346826097       -1.1841287959        1.5273149574
 H          3.1332948738       -2.4894173119        3.0167835638
 H          0.8409052503       -3.0247987779        2.2925115727
 C         -0.3649838268       -2.4010705910       -0.0615632220
 H         -0.8496997044       -2.9726511250        0.7411473471
 C         -0.3815101435       -3.2404527842       -1.3242369762
 C         -0.0565980690       -4.7000295832       -1.2300051388
 C         -1.4615836987       -4.2612292440       -1.5123079121
 H         -1.8618597300       -4.4107911382       -2.5038954016
 H         -2.1956126982       -4.3639739142       -0.7263283402
 H          0.1617082579       -5.1015471658       -0.2520819930
 H          0.5112054593       -5.1537473102       -2.0277096753
 H         -0.0475628580       -2.7062692255       -2.2041205313
 O         -2.1657489292       -1.5579444265        1.9167670105
