  62
        -98.94446416
 C         -2.6521845528       -1.3001374568        0.1168620819
 C         -2.5735942497       -0.2956675676       -0.8781163281
 C         -3.5710540030        0.7809883558       -0.7816996714
 C         -4.4864609011        0.7509194467        0.2034930002
 C         -5.5211046426        1.8097247865        0.4487970930
 C         -5.0024310224        2.8763938417        1.4233140287
 C         -3.6178909698        3.4186194053        1.0674571499
 H         -3.3696657465        4.1859448764        1.8039381221
 H         -2.8796869628        2.6202795334        1.1767601585
 C         -3.5119424520        4.0133327960       -0.3437505430
 H         -4.5080672277        4.2355688462       -0.7283962396
 H         -2.9677701782        4.9583119783       -0.2853417127
 C         -2.7660451660        3.1340519298       -1.3495643776
 H         -2.5598405521        3.7356987095       -2.2391941357
 H         -1.8010174641        2.8332333075       -0.9313194869
 C         -3.5081562382        1.8734070462       -1.8116964342
 H         -2.9557740161        1.4562628138       -2.6589389430
 H         -4.5101918808        2.1410829815       -2.1531449584
 H         -5.7202630194        3.6981109539        1.4497305025
 H         -4.9505543534        2.4372130477        2.4221263232
 H         -6.4034709419        1.3345596338        0.8805316129
 H         -5.7945265787        2.2699519728       -0.4985636140
 O         -4.5412645869       -0.2388235966        1.1303002274
 C         -3.6191870001       -1.2704267441        1.1250048429
 O         -3.7651762701       -2.0931428580        2.0506105544
 O         -1.7250625246       -0.2893887597       -1.8094100360
 C         -1.6520233969       -2.4454648072        0.1661066584
 C         -0.3058754565       -1.8661126705        0.5267062802
 C         -0.0250739119       -1.5850464134        1.8612199866
 C          1.1685283678       -0.9881479433        2.2200640812
 C          2.1027678459       -0.6487894988        1.2561328253
 C          1.8237126517       -0.9082224892       -0.0782423843
 C          0.6335337900       -1.5298602095       -0.4345638545
 H          0.4243193935       -1.7136972705       -1.4762125994
 N          2.7593416904       -0.5563024842       -1.0657832396
 S          3.4483598178        0.9725973307       -1.0002308295
 O          2.5777864023        1.9313375988       -0.3599325133
 O          3.8444143011        1.2681977849       -2.3600567970
 C          4.9141419177        0.7246370516       -0.0178426150
 C          5.1660934722        1.5449720060        1.0641898782
 C          6.3185518871        1.3404010437        1.8071899769
 C          7.1948334486        0.3251796261        1.4559468591
 C          6.9288921281       -0.4883694675        0.3645091435
 C          5.7793286384       -0.2883930445       -0.3827624511
 H          5.5374583496       -0.8965811994       -1.2382041843
 H          7.6125736079       -1.2770413610        0.0946357764
 H          8.0900907276        0.1670790824        2.0363216930
 H          6.5266315272        1.9723195162        2.6556781311
 H          4.4529433189        2.3178495361        1.3037543833
 H          2.4490090756       -0.7660194084       -2.0039700274
 H          3.0300374958       -0.1710266378        1.5272950154
 H          1.3740948963       -0.7804811353        3.2592724829
 H         -0.7651703410       -1.8288668680        2.6111586166
 H         -1.9766974097       -3.0918342598        0.9921154889
 C         -1.6519673157       -3.2553841854       -1.1132985639
 C         -0.9916166835       -4.6003730669       -1.1268999424
 C         -2.4851412634       -4.4976801961       -1.1913897421
 H         -2.9794300685       -4.7274396472       -2.1234646246
 H         -3.0561503394       -4.7718051279       -0.3163021681
 H         -0.4585049762       -4.9051067155       -2.0144821852
 H         -0.5468182977       -4.9444423649       -0.2054950644
 H         -1.5888291863       -2.6485981366       -2.0078725923
