  62
        -98.94356012
 C         -1.4345280785       -1.3533617311        0.6192449654
 C         -2.4219739824       -1.2132497997       -0.3859402698
 C         -3.4173134162       -0.1519733207       -0.1600532048
 C         -3.3072894867        0.6472418174        0.9160141282
 C         -4.2533142374        1.7629947356        1.2563237915
 C         -3.8213160688        3.1021519876        0.6425273564
 C         -3.4310618374        3.0078715673       -0.8317942192
 H         -3.1356977585        4.0078466903       -1.1568649770
 H         -2.5563054073        2.3615696485       -0.9292715989
 C         -4.5461207600        2.4812456277       -1.7454832945
 H         -5.5094820170        2.5624999224       -1.2404014704
 H         -4.5950960862        3.1083656615       -2.6381965730
 C         -4.3456019490        1.0414145858       -2.2210072690
 H         -3.3457922981        0.9298247258       -2.6477215020
 H         -5.0653145083        0.8445831304       -3.0201333242
 C         -4.5393856372       -0.0437394348       -1.1545440715
 H         -5.4924087054        0.1100575413       -0.6438209843
 H         -4.5777452050       -1.0087853969       -1.6681272176
 H         -4.6404683021        3.8142462994        0.7585145918
 H         -2.9668211141        3.4843046915        1.2055529756
 H         -5.2482959782        1.4987602518        0.9020342804
 H         -4.2830964448        1.8644184644        2.3426356502
 O         -2.2945575036        0.5373868491        1.8136413257
 C         -1.3478146968       -0.4642327405        1.6951854308
 O         -0.4903722021       -0.4684015168        2.6005836584
 H          2.0115556025       -1.5281510391        1.3860186842
 C          1.9386589026       -1.5547437619        0.3067385203
 C          0.7697579825       -2.0155079248       -0.2827423031
 C          0.6749695021       -2.0085222491       -1.6700467575
 C          1.7315910273       -1.5591838457       -2.4418466395
 C          2.8980494612       -1.1042774139       -1.8508149376
 C          2.9957654188       -1.0974364256       -0.4667066039
 N          4.1669414709       -0.5875637917        0.1421053002
 S          4.3881354542        1.0595589377       -0.0938766241
 O          4.8011176534        1.2851914649       -1.4550255337
 O          5.3121022212        1.4835231337        0.9330338745
 C          2.7687229768        1.7519678598        0.1833560901
 C          2.3499607530        1.9391874141        1.4853606174
 C          1.0578120589        2.3790082285        1.7178796963
 C          0.2093463441        2.6111538073        0.6472614706
 C          0.6428219005        2.4155343618       -0.6543484923
 C          1.9355074164        1.9789254081       -0.8928788057
 H          2.3106160704        1.8137125296       -1.8895594450
 H         -0.0238560047        2.5956571822       -1.4829806479
 H         -0.8005801243        2.9406549390        0.8321779038
 H          0.7083305926        2.5190979151        2.7279806571
 H          3.0394067315        1.7476508661        2.2922764217
 H          4.2042901467       -0.7811363614        1.1337978517
 H          3.7238468435       -0.7338583140       -2.4364947440
 H          1.6454626780       -1.5593293932       -3.5178832008
 H         -0.2433012324       -2.3313912121       -2.1351296302
 C         -0.3774316345       -2.4482562040        0.5963770295
 H          0.0010841212       -2.5121746545        1.6255297009
 C         -0.9207364201       -3.8076319063        0.2063271732
 C         -0.1216639513       -5.0276060804        0.5487674420
 C         -1.3989313996       -4.7386253422        1.2776689118
 H         -2.2611504926       -5.3562098821        1.0756604515
 H         -1.3365570946       -4.4002774707        2.3020278763
 H         -0.1039226818       -5.8459176863       -0.1544261136
 H          0.8080548921       -4.8847630188        1.0790759933
 H         -1.4666609687       -3.8089990270       -0.7268007212
 O         -2.5021137691       -1.9332525208       -1.4149239880
