  62
        -98.94341420
 C          2.2827955407        0.6246594315        0.0617077254
 C          3.1569825332        0.1787491424        1.0898516756
 C          4.0740395475       -0.9140295373        0.7459480395
 C          4.0319469338       -1.4379143871       -0.4922005691
 C          4.9411771565       -2.5180508758       -1.0003383314
 C          6.1955540840       -1.9248690406       -1.6570615379
 C          6.8937203855       -0.8625574693       -0.8079104283
 H          7.7808241538       -0.5392383181       -1.3568740656
 H          6.2388824390        0.0070253387       -0.7157339684
 C          7.3040773203       -1.3380723000        0.5928281104
 H          7.3125459694       -2.4280952637        0.6263980059
 H          8.3230195700       -0.9998131406        0.7924903200
 C          6.4271112042       -0.8031342296        1.7265359789
 H          6.3393003904        0.2828346175        1.6403847190
 H          6.9290754321       -1.0163748626        2.6739948708
 C          5.0148287622       -1.3953360289        1.8144258311
 H          5.0724117680       -2.4856661398        1.8134220815
 H          4.5781674353       -1.0745104974        2.7645929070
 H          6.8912116747       -2.7386410421       -1.8697259632
 H          5.9063071615       -1.4682377776       -2.6064910644
 H          5.2233548232       -3.1660582777       -0.1728078808
 H          4.3970960307       -3.1057466770       -1.7416474953
 O          3.1732232967       -1.0005487760       -1.4453956552
 C          2.2856634224        0.0383783366       -1.2037622100
 O          1.5774028499        0.3163852648       -2.1939646767
 H         -0.3799615388        0.4603270238       -1.1980324033
 C         -0.8050165067        0.6485204569       -0.2231030557
 C         -0.0430258698        1.3000469964        0.7362596713
 C         -0.6055694996        1.5306026020        1.9861952678
 C         -1.8965487286        1.1172185519        2.2650425221
 C         -2.6499744848        0.4622047199        1.3075873487
 C         -2.0963828656        0.2245605374        0.0562512276
 N         -2.8416462288       -0.4642456221       -0.9174311250
 S         -4.3855265302        0.0927569379       -1.2710142161
 O         -4.6636183008       -0.3762265821       -2.6109073032
 O         -4.4987165483        1.5165650123       -1.0525607458
 C         -5.4284940959       -0.7835228623       -0.1238766600
 C         -6.2858695005       -0.0827320916        0.7016030998
 C         -7.0961249260       -0.7868458404        1.5788792651
 C         -7.0352555748       -2.1714666133        1.6143644461
 C         -6.1706322030       -2.8604941587        0.7766598060
 C         -5.3591443479       -2.1628211426       -0.1036144686
 H         -4.6760700159       -2.6594851619       -0.7725712680
 H         -6.1258933040       -3.9372920195        0.8071404918
 H         -7.6654666380       -2.7173463518        2.2985880211
 H         -7.7692312151       -0.2532295094        2.2304876068
 H         -6.2938663071        0.9939751410        0.6431899855
 H         -2.3224575917       -0.6329895664       -1.7674988893
 H         -3.6548060946        0.1351700897        1.5196214720
 H         -2.3204288645        1.3040656625        3.2398141846
 H         -0.0194643731        2.0293104508        2.7442260750
 C          1.3554409182        1.7746620387        0.4180961547
 H          1.7766711463        2.2033737077        1.3374451028
 C          1.3147471544        2.8615747007       -0.6393990909
 C          0.9030435955        4.2465319081       -0.2437641014
 C          2.3302313666        3.9620951584       -0.6023563390
 H          2.7152457513        4.3388298285       -1.5380659981
 H          3.0607477677        3.9409539129        0.1932977071
 H          0.3021252936        4.8206471671       -0.9323100913
 H          0.6670224405        4.4204320674        0.7950662960
 H          1.0058006961        2.5039625675       -1.6132655532
 O          3.1712000770        0.6814272119        2.2447480565
