  62
        -98.93407015
 C         -1.8160728532       -1.6041687696        0.2933968162
 C         -1.6543543235       -0.3498219116       -0.3358744699
 C         -2.8222193239        0.5523760113       -0.3168169411
 C         -3.9658913331        0.1283450867        0.2510051023
 C         -5.2769103050        0.8590302443        0.3948964375
 C         -5.7738551458        1.6337013097       -0.8353582189
 C         -5.7053953178        3.1524410488       -0.6657750235
 H         -6.4335142142        3.6118087068       -1.3380122558
 H         -6.0028347029        3.4017212515        0.3549065597
 C         -4.3442638654        3.7792023738       -0.9631264273
 H         -4.1612221306        3.7512008772       -2.0395603266
 H         -4.3941093670        4.8304791516       -0.6699987827
 C         -3.1538080996        3.1289571304       -0.2552774936
 H         -2.3498817802        3.8669185917       -0.2144274049
 H         -3.4112286955        2.8787183981        0.7732025308
 C         -2.6114358020        1.8870364368       -0.9786372472
 H         -3.0123835160        1.8432475600       -1.9955969252
 H         -1.5255775087        1.9703182189       -1.0913839501
 H         -6.8172421852        1.3605296809       -1.0012049523
 H         -5.2166617885        1.3249714805       -1.7185487242
 H         -6.0018981775        0.0880239043        0.6652964942
 H         -5.2055599942        1.5326490330        1.2524576547
 O         -4.0782927217       -1.1006852936        0.8332433908
 C         -3.0201481274       -1.9877169405        0.8812172965
 O         -3.2671357125       -3.0615523798        1.4652900255
 H          1.9164854081       -2.4235624668       -0.6827891181
 C          1.7901315170       -1.9012839274        0.2531169880
 C          0.5620564988       -1.8976983673        0.8964663311
 C          0.4474298959       -1.2066566662        2.1005477010
 C          1.5187137574       -0.5144076148        2.6305516712
 C          2.7313788722       -0.4887895724        1.9631714878
 C          2.8609729319       -1.1886460740        0.7731095889
 N          4.1013660136       -1.1061241330        0.0775008534
 S          4.0876359463        0.1251265913       -1.0849900355
 O          3.1822928689       -0.2075289697       -2.1647633491
 O          5.4679004563        0.3023652375       -1.4840841400
 C          3.5193971919        1.5474261626       -0.1848874921
 C          4.4584356824        2.3485819893        0.4352132664
 C          4.0265896853        3.4427438122        1.1668878767
 C          2.6696049946        3.7104355878        1.2689892760
 C          1.7417319833        2.8943593888        0.6403899426
 C          2.1641809808        1.7988781245       -0.0967785436
 H          1.4605094085        1.1439454708       -0.5883444320
 H          0.6850494448        3.0948691321        0.7230318088
 H          2.3314317473        4.5599198549        1.8414254351
 H          4.7456191608        4.0799328268        1.6561235428
 H          5.5011260555        2.0992171634        0.3247941101
 H          4.3233551224       -1.9655779052       -0.4101405833
 H          3.5726615045        0.0626731034        2.3500340617
 H          1.4066405195        0.0191539238        3.5617556929
 H         -0.5078857817       -1.2090737171        2.6082264275
 C         -0.6575274461       -2.5846922109        0.3344666091
 H         -0.9582705481       -3.3867077912        1.0241426687
 C         -0.4389863507       -3.1823469491       -1.0402387021
 C          0.1427353662       -4.5561097745       -1.1831558175
 C         -1.3071869707       -4.3208335338       -1.4801640006
 H         -1.6361205546       -4.3513478613       -2.5081385463
 H         -2.0418903230       -4.6823347168       -0.7754427999
 H          0.8090603220       -4.7507609031       -2.0105450626
 H          0.3939633682       -5.0899622675       -0.2790273702
 H         -0.1788396719       -2.4366270152       -1.7844131884
 O         -0.5796862968        0.0120606973       -0.8839225793
