  62
        -98.94159959
 C         -1.5303306508       -0.7107271991        0.9524236595
 C         -2.7664521209       -1.1277912188        0.4013190693
 C         -3.8055489505       -0.0917560584        0.3132900089
 C         -3.5487719701        1.1607840916        0.7293532886
 C         -4.5129651596        2.3159401920        0.7168909881
 C         -4.6018694491        3.0425689517       -0.6321478821
 C         -5.3306372392        2.2772275017       -1.7374609021
 H         -6.3034720994        1.9487410121       -1.3702321122
 H         -5.5114898487        2.9834018715       -2.5503668323
 C         -4.5547475195        1.0745286212       -2.2927167216
 H         -4.5962493193        1.0866249609       -3.3842339916
 H         -3.5020362995        1.1577841109       -2.0123812514
 C         -5.0811212601       -0.2856169485       -1.8349291213
 H         -6.0894421301       -0.4394047382       -2.2259535115
 H         -4.4349894404       -1.0613724788       -2.2535453810
 C         -5.1147909805       -0.4688353380       -0.3122298313
 H         -5.2932527710       -1.5255623379       -0.0987225011
 H         -5.9258580204        0.1169954724        0.1197268684
 H         -5.1319723887        3.9823647619       -0.4611101825
 H         -3.5903977589        3.2866738412       -0.9647051820
 H         -4.1568924595        3.0253574420        1.4669125880
 H         -5.5040841398        1.9688338024        1.0104188180
 O         -2.3440407300        1.5251399213        1.2435164287
 C         -1.3090276704        0.6119362609        1.3498948192
 O         -0.2557074103        1.0881142106        1.8174020892
 O         -3.0173457413       -2.2958897688        0.0052034796
 C         -0.3396504412       -1.6448910395        1.1046325099
 C          0.3574457190       -1.7817922902       -0.2276435599
 C         -0.1157876112       -2.6208945102       -1.2305292198
 C          0.5460303590       -2.6974812008       -2.4425144796
 C          1.6924143594       -1.9571131513       -2.6719606296
 C          2.1663844395       -1.1062824812       -1.6797541197
 C          1.4906192793       -1.0182196607       -0.4716511099
 H          1.8488539294       -0.3451381906        0.2922506000
 N          3.3075389299       -0.3217886217       -1.8915322797
 S          4.3592009698        0.0206616682       -0.6375574596
 O          5.5965058300        0.3757237075       -1.3003212194
 O          4.4382512491       -1.0714517516        0.3045141607
 C          3.6819109702        1.4725302186        0.1353940099
 C          3.4695300299        1.4903066891        1.4987787899
 C          2.9574863102        2.6371201094        2.0832187095
 C          2.6710996708        3.7413717993        1.2969584691
 C          2.8944895611        3.7096982089       -0.0712412708
 C          3.4058169207        2.5656962085       -0.6612312704
 H          3.5943147109        2.5033380482       -1.7202382304
 H          2.6679685915        4.5716807888       -0.6782984711
 H          2.2672372911        4.6306822996        1.7546777588
 H          2.7751572700        2.6604290198        3.1453890094
 H          3.6977844494        0.6064800491        2.0740610101
 H          3.7903205400       -0.4888858322       -2.7619417396
 H          2.2146595595       -2.0300277118       -3.6139667995
 H          0.1703997889       -3.3499203809       -3.2164264495
 H         -1.0161891814       -3.1899229498       -1.0622787898
 H          0.3541101688       -1.1325644596        1.7851843799
 C         -0.6953365019       -2.9866618292        1.7112518702
 C          0.4099830877       -3.8450559695        2.2461691507
 C         -0.5483533122       -3.1822656189        3.1887385803
 H         -1.2744013026       -3.7951615685        3.7015852703
 H         -0.1928174020       -2.3458774489        3.7731781501
 H          0.3442901473       -4.9139892495        2.1127950309
 H          1.4164624578       -3.4567875399        2.1860036008
 H         -1.5288722020       -3.4781222790        1.2283265902
