  62
        -98.93700238
 C         -1.3244785318       -1.1398138055       -0.6465005745
 C         -2.5793649707       -1.2941583850       -0.0062316536
 C         -3.5060306910       -0.1492396993       -0.0423854201
 C         -3.1267325251        0.9707703822       -0.6828424411
 C         -3.8766862284        2.2689599392       -0.8458743368
 C         -5.3693712155        2.1662547285       -1.1956795586
 C         -6.2938773187        2.5758865666       -0.0478817444
 H         -5.8575661130        3.4401408732        0.4574054150
 H         -7.2516482801        2.8924576344       -0.4668813301
 C         -6.5787937312        1.4816371666        0.9793481426
 H         -7.1267764239        1.9394231680        1.8062718795
 H         -7.2323944733        0.7287626983        0.5335583379
 C         -5.3438804409        0.7747414203        1.5417993407
 H         -4.5453351619        1.4915894179        1.7319450206
 H         -5.6172393142        0.3412465850        2.5062977953
 C         -4.8254377895       -0.3622437595        0.6484456291
 H         -5.5790693151       -0.6203763724       -0.1011965723
 H         -4.6782927068       -1.2643565148        1.2503882775
 H         -5.5598385263        2.8361377910       -2.0357478061
 H         -5.6028754976        1.1562924270       -1.5288771393
 H         -3.7467332322        2.8570593107        0.0664627398
 H         -3.3456663176        2.8048049323       -1.6361148022
 O         -1.9133829793        1.0766456149       -1.2907706006
 C         -0.9800673705        0.0530260098       -1.2802249011
 O          0.0718979385        0.3405053886       -1.8827776432
 O         -2.9187139626       -2.3610134337        0.5753783745
 C         -0.3733791869       -2.3225209859       -0.5569259685
 C          0.4998624684       -2.1746777669        0.6674220320
 C          0.4143779773       -3.0879229906        1.7110761513
 C          1.1831033327       -2.9256023548        2.8499277637
 C          2.0369298070       -1.8456521071        2.9707126441
 C          2.1311581446       -0.9244496219        1.9308753261
 C          1.3792866332       -1.1056530010        0.7795881594
 H          1.4413484149       -0.3831583091       -0.0166272509
 N          3.0014935572        0.1650238723        2.0405545400
 S          2.7592015952        1.6360590042        1.2779533467
 O          3.4309987122        2.5858101724        2.1434483179
 O          1.3615753949        1.8912853284        1.0252166906
 C          3.7109783356        1.4792439186       -0.2185613096
 C          3.1022021228        1.3486330850       -1.4491313417
 C          3.9012617289        1.2107552818       -2.5753795283
 C          5.2814111892        1.2077099943       -2.4540241494
 C          5.8773128047        1.3449213756       -1.2087738251
 C          5.0868638437        1.4817466274       -0.0806530338
 H          5.5066923346        1.6042221679        0.9038917629
 H          6.9514124115        1.3448727574       -1.1159918405
 H          5.8947616158        1.0992712133       -3.3347479908
 H          3.4316794271        1.1034418282       -3.5403797433
 H          2.0252640428        1.3435213434       -1.5222798349
 H          3.4380343342        0.2754560198        2.9432698563
 H          2.6245690812       -1.7070737801        3.8655387341
 H          1.1066127003       -3.6388697019        3.6565907954
 H         -0.2774186824       -3.9137185983        1.6347974862
 H         -1.0181308664       -3.1981548471       -0.3989100032
 C          0.4588707514       -2.5605715262       -1.7994662421
 C          1.0064073928       -3.9327501511       -2.0500695060
 C         -0.1012243781       -3.3992788539       -2.9071737241
 H          0.1190367546       -3.1178647178       -3.9257617440
 H         -1.0926468590       -3.8071276546       -2.7728628609
 H          1.9919952388       -4.0216807936       -2.4799559057
 H          0.7655625768       -4.7058838293       -1.3362417285
 H          1.0716221034       -1.7148986390       -2.0805775723
