  62
        -98.94480620
 C          1.8935771999        0.1051231605        0.0356986499
 C          2.8785792697        1.0315698104        0.4535456407
 C          4.2059036497        0.4726524604        0.7399101907
 C          4.4019086599       -0.8526187096        0.6126902300
 C          5.7164407699       -1.5464224396        0.8200730100
 C          6.5080084502       -1.6403542788       -0.4919130998
 C          6.6083716403       -0.3164090984       -1.2496366191
 H          7.2120382805       -0.4976717879       -2.1416177791
 H          5.6122679603       -0.0245819683       -1.5903482692
 C          7.2242321700        0.8335816112       -0.4404515683
 H          7.7696195098        0.4338250008        0.4152005116
 H          7.9472453701        1.3564119116       -1.0701144679
 C          6.2174391298        1.8786177409        0.0436812619
 H          6.7756239596        2.7450799807        0.4081805725
 H          5.6051715800        2.2141066413       -0.7971894080
 C          5.2811929995        1.4293996402        1.1725237015
 H          5.8676226294        1.0069313198        1.9908593114
 H          4.7603708294        2.3165899200        1.5444341518
 H          7.5101296102       -2.0086758888       -0.2648062798
 H          6.0169229404       -2.3693817185       -1.1407178003
 H          6.2938260796       -1.0046370499        1.5667003304
 H          5.5187678599       -2.5547551198        1.1876127694
 O          3.4248824400       -1.7146290094        0.2309030793
 C          2.1497799801       -1.2612208894       -0.0766910407
 O          1.3566476402       -2.1560335393       -0.4249250914
 O          2.6555757196        2.2651010103        0.5854456013
 C          0.5049753000        0.6185342106       -0.3012782502
 C         -0.5238177002       -0.0607227499        0.5670411792
 C         -0.3379884905       -0.0552953007        1.9481616793
 C         -1.2368199007       -0.6842184412        2.7858793487
 C         -2.3521049405       -1.3193070710        2.2667386781
 C         -2.5536579502       -1.3221096403        0.8929920180
 C         -1.6452591700       -0.6905149998        0.0522779986
 H         -1.8219763697       -0.7262274792       -1.0091527415
 N         -3.6747485000       -1.9614625201        0.3378116974
 S         -4.5830290298       -1.1730706495       -0.8240259124
 O         -5.8497450397       -1.8712084897       -0.8304807631
 O         -3.8737592894       -1.1313974088       -2.0765622422
 C         -4.7923939801        0.4716260901       -0.1676632516
 C         -5.7137730403        0.6571370695        0.8448020083
 C         -5.8351728806        1.9115752892        1.4193546389
 C         -5.0301255606        2.9519869795        0.9803720997
 C         -4.1123708503        2.7498217701       -0.0384163702
 C         -3.9891194700        1.4978657004       -0.6202723908
 H         -3.2900659098        1.3024057509       -1.4162340808
 H         -3.4888207503        3.5606154103       -0.3802016696
 H         -5.1197300207        3.9271849992        1.4323831602
 H         -6.5519519408        2.0741330387        2.2080505288
 H         -6.3269225503       -0.1749972607        1.1507998977
 H         -4.2738936001       -2.4089695305        1.0161184970
 H         -3.0530990606       -1.8183439314        2.9184323977
 H         -1.0721536010       -0.6789921517        3.8527586188
 H          0.5334244993        0.4405748692        2.3535958098
 H          0.5220600298        1.6879323405       -0.0427872096
 C          0.2423400704        0.4820500514       -1.7858392203
 C         -0.6372143296        1.4679851917       -2.4923603800
 C          0.8432123705        1.4834618019       -2.7247126696
 H          1.2239965608        1.1367248124       -3.6737266497
 H          1.4194951103        2.2869353917       -2.2893939690
 H         -1.2818217493        1.1105897020       -3.2820979404
 H         -1.0555573598        2.2710012413       -1.9042941797
 H          0.2191997705       -0.5513181785       -2.1147293809
