  62
        -98.94131248
 C         -2.4904090139       -1.3432690093        0.0124245146
 C         -3.1732005383       -0.6241173065        1.0286234755
 C         -3.9800784059        0.5189289537        0.5910894277
 C         -4.0468784836        0.8230814056       -0.7172422658
 C         -4.8426681168        1.9438884915       -1.3286979421
 C         -4.1293122420        3.3025636233       -1.2981870646
 C         -4.0473960831        3.9632029195        0.0785338326
 H         -3.7275870966        4.9949063108       -0.0805256220
 H         -5.0416908241        3.9947994804        0.5251538920
 C         -3.0665400135        3.2889795134        1.0483660618
 H         -2.4563937643        4.0515028076        1.5381217970
 H         -2.3786192127        2.6490174132        0.4893788633
 C         -3.7298348440        2.4630384796        2.1509687374
 H         -4.3067318504        3.1216716912        2.8039659966
 H         -2.9413150786        1.9995723661        2.7494271702
 C         -4.6541997957        1.3502558065        1.6401242235
 H         -4.8957624569        0.6936213231        2.4794130333
 H         -5.5780995185        1.7774912293        1.2509542286
 H         -3.1212845183        3.1786328876       -1.7019360951
 H         -4.6748810078        3.9721753810       -1.9671696029
 H         -5.0163240817        1.6694670142       -2.3714514472
 H         -5.8062184420        2.0263983683       -0.8250828987
 O         -3.3884857207        0.1056885677       -1.6639080820
 C         -2.5756933553       -0.9719549845       -1.3293590969
 O         -2.0133187827       -1.4892608046       -2.3141059628
 H          0.0007393190       -1.3100293495       -1.2947139965
 C          0.4821961653       -1.4559821612       -0.3382708311
 C         -0.2179854054       -2.0817766536        0.6850496891
 C          0.4112222445       -2.2518032097        1.9120214777
 C          1.7080533885       -1.8071684998        2.1057762780
 C          2.4017348581       -1.1861851824        1.0825977371
 C          1.7795450828       -1.0076178566       -0.1462947828
 N          2.4761210808       -0.3672591788       -1.1932845078
 S          2.9344335196        1.2242607923       -0.8903978429
 O          2.0314795427        1.8630699264        0.0408452672
 O          3.0623518802        1.8447779638       -2.1909908118
 C          4.5511827693        1.0594545353       -0.1636998895
 C          4.8005035843        1.5783146809        1.0915421331
 C          6.0687678257        1.4380528162        1.6338856052
 C          7.0587560988        0.7857673158        0.9149709562
 C          6.7922891004        0.2724561767       -0.3459257734
 C          5.5272593777        0.4100505564       -0.8943491224
 H          5.2776924748        0.0293329975       -1.8706735310
 H          7.5647579764       -0.2340253469       -0.9017819911
 H          8.0440529387        0.6767318563        1.3399145202
 H          6.2777197432        1.8366550017        2.6136316101
 H          3.9968784839        2.0711535742        1.6150739054
 H          1.9773720940       -0.4105145577       -2.0719357620
 H          3.4107853774       -0.8360786975        1.2274970697
 H          2.1832764170       -1.9437214936        3.0650228313
 H         -0.1303482316       -2.7183647087        2.7217690258
 C         -1.6436912003       -2.5202480133        0.4683697519
 H         -2.0581947484       -2.7916572992        1.4520466496
 C         -1.7744964233       -3.7405658471       -0.4329768012
 C         -0.6510697000       -4.3007800786       -1.2483415447
 C         -1.1272610684       -5.0336985344       -0.0326752651
 H         -1.6798261877       -5.9519409868       -0.1604176279
 H         -0.4900233147       -5.0165489318        0.8386948803
 H          0.3097008943       -3.8127771066       -1.2045016762
 H         -0.8930800263       -4.6937842580       -2.2241359070
 H         -2.7630273014       -3.8091352211       -0.8758749742
 O         -3.1180079218       -0.9354407820        2.2478998217
