  62
        -98.94130175
 C          2.4859303544        1.3356918621        0.0198473158
 C          3.1443561281        0.5978430295        1.0384548917
 C          3.9390107951       -0.5574334333        0.6046941701
 C          4.0070866913       -0.8496236985       -0.7064108723
 C          4.7387226822       -2.0231198885       -1.2890998844
 C          3.8203162821       -3.2469426972       -1.4120629721
 C          3.0398386466       -3.5664941982       -0.1367011128
 H          2.3240459784       -2.7632561759        0.0574835347
 H          2.4550916868       -4.4685209451       -0.3312721458
 C          3.9146859132       -3.7811872880        1.1065514343
 H          3.5523682342       -4.6629269413        1.6390701678
 H          4.9429675052       -3.9838323555        0.8048283974
 C          3.8971616667       -2.6206953727        2.1032878594
 H          2.8624381968       -2.3496617628        2.3293784016
 H          4.3566213659       -2.9650859525        3.0335481014
 C          4.6436777891       -1.3540454975        1.6660749959
 H          5.6541906427       -1.6147754297        1.3450555939
 H          4.7167978818       -0.6945638422        2.5356967432
 H          3.1010389576       -3.0632976743       -2.2139371972
 H          4.4291555068       -4.1084089549       -1.6927157493
 H          5.0956268754       -1.7471956685       -2.2828435770
 H          5.5936379565       -2.2596453925       -0.6586208692
 O          3.3706430239       -0.1200948001       -1.6556722231
 C          2.5799256796        0.9743081515       -1.3240837967
 O          2.0413345049        1.5115355572       -2.3111980851
 O          3.0758800238        0.9029218925        2.2590317489
 C          1.6565934761        2.5253480060        0.4749803892
 C          0.2222666559        2.1105800909        0.6814097569
 C         -0.4186161420        2.3064965783        1.8984235231
 C         -1.7235015269        1.8821201883        2.0833770670
 C         -2.4130306442        1.2541258950        1.0616287574
 C         -1.7793144878        1.0503041771       -0.1573537576
 C         -0.4749020371        1.4806953513       -0.3413834484
 H          0.0142022405        1.3167156409       -1.2910382395
 N         -2.4710555688        0.3971083121       -1.2006574423
 S         -2.8987794203       -1.2005432721       -0.8814059057
 O         -1.9769704478       -1.8149583042        0.0479885750
 O         -3.0264391057       -1.8342202006       -2.1756492055
 C         -4.5118465692       -1.0573892073       -0.1421517756
 C         -4.7350409968       -1.5477018371        1.1293989187
 C         -6.0003583618       -1.4228343738        1.6822388036
 C         -7.0133427925       -0.8136251513        0.9575420305
 C         -6.7729344202       -0.3285594551       -0.3196773049
 C         -5.5110003579       -0.4512002484       -0.8787187560
 H         -5.2811809473       -0.0920636482       -1.8679670906
 H         -7.5631984682        0.1444549636       -0.8799911784
 H         -7.9962274584       -0.7162779263        1.3908247605
 H         -6.1891145412       -1.7996709610        2.6746164844
 H         -3.9142704556       -2.0072470550        1.6565805620
 H         -1.9706056830        0.4372776965       -2.0786080313
 H         -3.4279258907        0.9185322724        1.1999536945
 H         -2.2078885965        2.0390818810        3.0348824037
 H          0.1199962520        2.7769912804        2.7078797084
 H          2.0691706616        2.7870044596        1.4621063486
 C          1.8115590766        3.7463613225       -0.4214117707
 C          0.7024689923        4.3208465845       -1.2463675256
 C          1.1750601047        5.0457936192       -0.0244739472
 H          1.7393123638        5.9578833888       -0.1449742164
 H          0.5292489262        5.0341839598        0.8406408833
 H          0.9581109182        4.7132219114       -2.2189016139
 H         -0.2637874123        3.8428318995       -1.2129765417
 H          2.8051691301        3.8043151335       -0.8542131220
