  62
        -98.94050528
 C          1.2941637555        1.6906676077       -0.4094847925
 C          1.2953051032        0.3594040112       -0.8933719620
 C          2.5601131254       -0.3877240162       -0.7467470880
 C          3.6127568055        0.1910902090       -0.1459530144
 C          5.0052850309       -0.3518508282        0.0614791752
 C          5.1453564790       -1.8182670122        0.4876135569
 C          4.0255307141       -2.3362169115        1.4015877601
 H          4.4708388992       -2.8081476089        2.2796510513
 H          3.4107593712       -1.5064473184        1.7557287229
 C          3.1291778528       -3.3686446146        0.7154192205
 H          3.7589182619       -4.0592888805        0.1492014485
 H          2.6110005714       -3.9492341688        1.4829467046
 C          2.0560488646       -2.7919046319       -0.2075465968
 H          1.2875652911       -2.2948847613        0.3921098038
 H          1.5773381966       -3.6329044522       -0.7175474091
 C          2.5518786115       -1.7961358460       -1.2691835484
 H          3.5279864147       -2.0858957734       -1.6523081329
 H          1.8350393743       -1.8046979428       -2.0948637110
 H          5.2024620215       -2.4517644731       -0.3963937381
 H          6.1044098820       -1.9072865108        1.0007940937
 H          5.5701306230       -0.1925535541       -0.8619262321
 H          5.4485595851        0.2937251999        0.8236756132
 O          3.5533063625        1.4597101184        0.3496424145
 C          2.4129794789        2.2305740552        0.2294661699
 O          2.5196640936        3.3747897579        0.7176295827
 H         -1.2658845118        0.3628429747        0.0264177892
 C         -1.4877040232        1.1357027145        0.7433775031
 C         -0.8658385072        2.3703118652        0.6272518783
 C         -1.1431617130        3.3522565262        1.5709655964
 C         -2.0187034834        3.0968853291        2.6116221367
 C         -2.6246362498        1.8594903791        2.7341848224
 C         -2.3521658639        0.8709632194        1.7946467154
 N         -2.9669976827       -0.3856443206        1.8703124662
 S         -2.1676217895       -1.7494594546        1.3188082221
 O         -2.8885744970       -2.8512516057        1.9276087623
 O         -0.7560761746       -1.6974474625        1.6230405662
 C         -2.4676184694       -1.7877282108       -0.4351913833
 C         -1.6405309076       -2.5651928026       -1.2185625560
 C         -1.8796187579       -2.6380732885       -2.5810043120
 C         -2.9396597095       -1.9379277665       -3.1336546356
 C         -3.7665949627       -1.1675104613       -2.3312223090
 C         -3.5340525083       -1.0916352022       -0.9674734071
 H         -4.1526230460       -0.4915130444       -0.3208713854
 H         -4.5889443716       -0.6202450906       -2.7638904952
 H         -3.1187521180       -1.9892933299       -4.1963368622
 H         -1.2326914987       -3.2333990330       -3.2054730680
 H         -0.8177276578       -3.0818891896       -0.7527482007
 H         -3.5013272039       -0.5641523609        2.7074462570
 H         -3.2997384113        1.6559192865        3.5514984618
 H         -2.2247896423        3.8658890297        3.3407411901
 H         -0.6526523036        4.3117495727        1.4950825832
 C          0.0977898344        2.6265751704       -0.5059265732
 H          0.5046955694        3.6388960702       -0.3760872237
 C         -0.6146085007        2.5626854691       -1.8431686434
 C         -1.4562049276        3.7254903242       -2.2715698063
 C         -0.1556874965        3.4459845927       -2.9622216072
 H         -0.1757763836        3.0538646875       -3.9677747878
 H          0.6775339632        4.1063109111       -2.7686733014
 H         -2.3735126122        3.5272048340       -2.8037599402
 H         -1.5048738196        4.5786750587       -1.6118487105
 H         -0.9556296085        1.5692474393       -2.1018206030
 O          0.3143011511       -0.1962887284       -1.4531105110
