  62
        -98.93792168
 C         -1.1039878134       -1.6192394450        0.4762567829
 C         -1.6929683874       -0.9348455451       -0.6121700666
 C         -2.7068133376        0.0881376991       -0.2760278695
 C         -2.9520258654        0.3660839612        1.0163081879
 C         -3.9396086401        1.3466377045        1.5956345837
 C         -5.3610825851        1.2790863823        1.0139042751
 C         -5.7345257710        2.5093125920        0.1865429829
 H         -6.8229532905        2.5979358134        0.1628290574
 H         -5.3468737120        3.3987757383        0.6876725285
 C         -5.2406528141        2.4844871446       -1.2585925268
 H         -5.4579147119        3.4612793613       -1.6971506782
 H         -5.8118824671        1.7427838729       -1.8211122352
 C         -3.7497750426        2.1876629415       -1.4408502313
 H         -3.4525552888        2.6038883274       -2.4060924823
 H         -3.1656747657        2.6986517239       -0.6771728487
 C         -3.4107842198        0.6900432551       -1.4623724780
 H         -4.3204507742        0.1102428636       -1.6487858638
 H         -2.7462546120        0.4768927116       -2.3057260372
 H         -5.4719767537        0.3756646793        0.4152587589
 H         -6.0624053996        1.2030752870        1.8463290873
 H         -3.5444026934        2.3595714536        1.4903159024
 H         -3.9643248694        1.1307464451        2.6660459860
 O         -2.2687492222       -0.2385506178        2.0319395505
 C         -1.3533061402       -1.2448704168        1.7961648958
 O         -0.8291702533       -1.7158148183        2.8275028516
 O         -1.4090301389       -1.1665997512       -1.8143815475
 C         -0.1140662745       -2.7533466315        0.2538215425
 C          1.1829224782       -2.1628606877       -0.2420118129
 C          1.6492142827       -2.2914802446       -1.5426175337
 C          2.8225869885       -1.6648467884       -1.9294499956
 C          3.5503944988       -0.9025860945       -1.0342719955
 C          3.0907370396       -0.7709024790        0.2702212629
 C          1.9182795267       -1.3980882533        0.6564955399
 H          1.5527930646       -1.2874829210        1.6699492354
 N          3.8085374722        0.0365407662        1.1798920966
 S          3.9785684642        1.6341808430        0.6961111802
 O          5.0841817750        1.7362201763       -0.2222888121
 O          4.0970538724        2.4025958124        1.9150666706
 C          2.4499904340        2.0000717822       -0.1470470326
 C          2.4394804997        2.1774817964       -1.5150212091
 C          1.2261273072        2.3730402874       -2.1548226020
 C          0.0507864231        2.3797486328       -1.4211934614
 C          0.0789305176        2.2027880550       -0.0468202172
 C          1.2878271563        2.0071179682        0.5984546324
 H          1.3398323563        1.8645166783        1.6668742770
 H         -0.8371472756        2.1968362598        0.5228744811
 H         -0.8949405710        2.5165927606       -1.9197311809
 H          1.1980812796        2.5093754598       -3.2237161723
 H          3.3757613355        2.1583213608       -2.0483418014
 H          3.4290762731        0.0025503207        2.1158343363
 H          4.4592873604       -0.3990228954       -1.3216030894
 H          3.1725893792       -1.7689482237       -2.9449273411
 H          1.0857539514       -2.8675297393       -2.2572076364
 H          0.0754768997       -3.1809586323        1.2484374919
 C         -0.6841630227       -3.8346354416       -0.6376342067
 C         -0.0509388883       -5.1924744787       -0.6396741210
 C         -1.3969579960       -4.9939758545       -0.0116742824
 H         -2.2650124855       -5.3964039360       -0.5118805124
 H         -1.4669603428       -5.0163893399        1.0664396517
 H          0.0057527811       -5.7347861613       -1.5709819906
 H          0.7948562257       -5.3495242160        0.0127375541
 H         -1.0799485971       -3.4552041297       -1.5709132751
