  62
        -98.94521513
 C         -2.4508586758       -1.1929125979       -0.0748484036
 C         -3.5434867539       -0.8480801766        0.7606991122
 C         -4.4587752469        0.1702780967        0.2365074348
 C         -4.2283463664        0.7148397676       -0.9719924419
 C         -5.0808644154        1.7510823001       -1.6527917871
 C         -4.7795578977        3.1918290679       -1.2176481817
 C         -5.2571067865        3.5605837001        0.1875329177
 H         -5.1799012613        4.6459873813        0.2767644031
 H         -6.3106029052        3.2992842780        0.2919906179
 C         -4.4487679789        2.9138654096        1.3210939174
 H         -3.4967643308        2.5487786361        0.9277793654
 H         -4.2131226644        3.6675870863        2.0757941334
 C         -5.1637206288        1.7662995413        2.0345088024
 H         -4.4871870569        1.3589075663        2.7899070521
 H         -6.0496605899        2.1485152612        2.5462460738
 C         -5.5906060104        0.6172854083        1.1118123495
 H         -6.4442554143        0.9187331308        0.5053671122
 H         -5.8839854932       -0.2313797541        1.7344114371
 H         -3.7027290484        3.3615490946       -1.2935057495
 H         -5.2712115387        3.8567875894       -1.9315482871
 H         -6.1344417751        1.5300599854       -1.4793675140
 H         -4.8784888716        1.6655633417       -2.7226215283
 O         -3.1700233696        0.3558647126       -1.7456560113
 C         -2.2473543645       -0.5877125325       -1.3149283083
 O         -1.3243202061       -0.7962589402       -2.1268916471
 O         -3.7459745817       -1.3722903144        1.8876257341
 C         -1.4612074367       -2.2271477591        0.4370773618
 C         -0.1558464684       -1.5271839225        0.7216513450
 C         -0.0099626485       -0.8208166798        1.9128236935
 C          1.1466887846       -0.1119114000        2.1756003615
 C          2.1787182315       -0.0829753027        1.2530551937
 C          2.0347374916       -0.7679343039        0.0547761858
 C          0.8809698457       -1.4993085944       -0.1972175309
 H          0.7788041743       -2.0168980238       -1.1377487457
 N          3.0703669225       -0.7372291843       -0.8946016853
 S          3.7872850625        0.7383339122       -1.2478230924
 O          2.8800922561        1.8445787077       -1.0456376747
 O          4.3302596302        0.5856168404       -2.5803061069
 C          5.1362035132        0.8330202541       -0.0869322799
 C          5.9976225999       -0.2431687892        0.0012650773
 C          7.0584080904       -0.1802457737        0.8905294959
 C          7.2416966548        0.9523301104        1.6699154613
 C          6.3706734013        2.0259594674        1.5670810983
 C          5.3066171149        1.9687776149        0.6801621680
 H          4.6000377020        2.7763318971        0.5712267484
 H          6.5142495969        2.9059732951        2.1732977910
 H          8.0678853379        0.9985377505        2.3616978144
 H          7.7373709056       -1.0135516084        0.9735898151
 H          5.8215434895       -1.1033960259       -0.6225559202
 H          2.8465235313       -1.2345033336       -1.7449108167
 H          3.0784040243        0.4784178589        1.4451869968
 H          1.2473534723        0.4270086813        3.1054562151
 H         -0.8242348325       -0.8254214636        2.6240800276
 H         -1.8771203850       -2.5758999128        1.3919379180
 C         -1.3356636113       -3.4099285708       -0.4995709820
 C         -0.6875978035       -4.6683867494       -0.0071999733
 C         -2.1657768532       -4.6317313228       -0.2494790293
 H         -2.5639335005       -5.1652478795       -1.0995869349
 H         -2.8249968949       -4.6207883156        0.6059828775
 H         -0.0684596721       -5.2311597658       -0.6889198024
 H         -0.3415764557       -4.6807366376        1.0151402691
 H         -1.1767152243       -3.1261189157       -1.5329368575
