  62
        -98.92949797
 C         -2.4008741095       -0.9341091637        0.8110702533
 C         -2.7562670129       -0.4287452382       -0.4613676764
 C         -3.5566385917        0.8164213091       -0.4837520640
 C         -3.8691175654        1.4137163454        0.6802783536
 C         -4.6380344416        2.6891484825        0.9028491482
 C         -3.8078930614        3.9449264671        0.5928346429
 C         -2.9953498093        3.8749173756       -0.6973945918
 H         -2.3768459406        4.7747916203       -0.7494793345
 H         -2.3187297674        3.0195375495       -0.6503033820
 C         -3.8188862853        3.7996315873       -1.9808672538
 H         -3.1187381392        3.8538837699       -2.8184333246
 H         -4.4736239233        4.6720235675       -2.0386731790
 C         -4.6696213959        2.5398514732       -2.1569594391
 H         -4.9884204750        2.5065306812       -3.2028874557
 H         -5.5767304027        2.5903229040       -1.5605776942
 C         -3.9335504540        1.2315268955       -1.8856123967
 H         -4.5344301415        0.4053080210       -2.2850119563
 H         -3.0035486668        1.2141387034       -2.4656277019
 H         -3.1092599248        4.1001720911        1.4186202841
 H         -4.4816517345        4.8025888460        0.5555236632
 H         -4.9137745481        2.7073344490        1.9596586451
 H         -5.5554700065        2.6782131360        0.3220241132
 O         -3.4562028279        0.9175101776        1.8827652772
 C         -2.7189645741       -0.2446368684        1.9828409643
 O         -2.4016551190       -0.5534067210        3.1497868968
 O         -2.4328411924       -0.9748774399       -1.5472691435
 C         -1.5946202897       -2.2111758966        0.9740623386
 C         -0.4212547402       -2.2101617333        0.0246612142
 C         -0.2503037616       -3.1417715361       -0.9896820357
 C          0.8550687015       -3.0753939345       -1.8200127036
 C          1.8093171740       -2.0886081211       -1.6579156820
 C          1.6512970604       -1.1539288262       -0.6424490430
 C          0.5466080901       -1.2268316632        0.1928832728
 H          0.4193674667       -0.4980433991        0.9851396000
 N          2.6081167836       -0.1329271098       -0.4771939095
 S          4.2331863565       -0.5898654598       -0.5632252926
 O          4.6120401925       -0.6705548784       -1.9516520899
 O          4.4560672046       -1.7843740031        0.2206405818
 C          5.0289573607        0.8115396023        0.1963111673
 C          5.4243769743        0.7321431764        1.5179668897
 C          6.0278116195        1.8337210995        2.1042268775
 C          6.2208878168        2.9902049778        1.3637675888
 C          5.8175676097        3.0547962868        0.0381075291
 C          5.2154544793        1.9566038784       -0.5548885545
 H          4.8956320748        1.9575912615       -1.5838025873
 H          5.9716183214        3.9552293148       -0.5343096254
 H          6.6912485394        3.8456855003        1.8223009279
 H          6.3447449637        1.7853230374        3.1336048131
 H          5.2614043735       -0.1900665885        2.0525298983
 H          2.4345478643        0.4158115212        0.3540183703
 H          2.6744859449       -2.0305172696       -2.2986429499
 H          0.9736582072       -3.8016887585       -2.6102105528
 H         -0.9939039363       -3.9055220958       -1.1466918457
 H         -1.1917033889       -2.1594978050        1.9994965176
 C         -2.4237244468       -3.4849057114        0.9045475845
 C         -3.8530697003       -3.4967599236        1.3560497651
 C         -3.5235042313       -3.6807483022       -0.0933534284
 H         -3.6517326581       -4.6625075336       -0.5256768931
 H         -3.7279920197       -2.8730249249       -0.7775474199
 H         -4.2064022516       -4.3481936077        1.9180641278
 H         -4.2858164841       -2.5573379727        1.6687975063
 H         -1.8340133207       -4.3609993519        1.1575022794
