  62
        -98.93061026
 C         -2.3797765375       -1.1986630988       -0.1524117236
 C         -3.1795713392       -0.3801443083       -0.9865824546
 C         -4.5006858164        0.0009884365       -0.4487689498
 C         -4.8753610544       -0.4255460766        0.7682021268
 C         -6.1805292937       -0.1929677890        1.4875388557
 C         -6.7806729748        1.2186301131        1.4310237043
 C         -5.7539962165        2.3595617254        1.3830094675
 H         -4.7571235222        1.9759486078        1.6073924201
 H         -6.0018496587        3.0918107754        2.1537650589
 C         -5.7307369114        3.0856746270        0.0357944488
 H         -5.2819680616        4.0718643560        0.1768547953
 H         -6.7596879250        3.2395993742       -0.2966237077
 C         -4.9458753984        2.3859213522       -1.0729227009
 H         -3.8764024734        2.4255038676       -0.8497524834
 H         -5.1007993726        2.9447219503       -1.9989036203
 C         -5.3166733755        0.9140184674       -1.3184123832
 H         -5.0492890558        0.6677643530       -2.3494809952
 H         -6.3830319031        0.7482421757       -1.1869579022
 H         -7.4070879403        1.3294598559        2.3178097489
 H         -7.4415724617        1.2995560310        0.5691344783
 H         -5.9825508511       -0.4651166662        2.5271189371
 H         -6.9127431622       -0.9085649399        1.1020132251
 O         -4.0686586367       -1.2084162657        1.5414304150
 C         -2.8169685795       -1.6025695743        1.1107009744
 O         -2.1935073105       -2.3107687086        1.9291011456
 O         -2.8344211924        0.0180540837       -2.1267283085
 C         -0.9976091171       -1.6923379786       -0.5467274919
 C          0.0573061985       -0.6772169310       -0.1939681208
 C         -0.0158299778        0.6376133609       -0.6448603788
 C          0.9750381496        1.5472623075       -0.3229247148
 C          2.0580811799        1.1664842446        0.4516002812
 C          2.1331545583       -0.1388851280        0.9149635543
 C          1.1372285849       -1.0489691407        0.5931075716
 H          1.2033569846       -2.0642139677        0.9627360533
 N          3.2626324379       -0.5309690029        1.6812717959
 S          4.5704503607       -0.9637329215        0.7049493284
 O          4.1301620286       -1.7300675125       -0.4406195174
 O          5.5157975706       -1.6187369082        1.5814059172
 C          5.2109202695        0.6080662487        0.1787375767
 C          5.9109029454        1.3708742560        1.0931903344
 C          6.3879514994        2.6114659583        0.7015885000
 C          6.1556061252        3.0649642211       -0.5886598481
 C          5.4521893839        2.2856203199       -1.4946126297
 C          4.9728310222        1.0431924729       -1.1099085476
 H          4.4187263812        0.4043983639       -1.7788388094
 H          5.2722367041        2.6404823765       -2.4966423297
 H          6.5259631488        4.0319598753       -0.8906388208
 H          6.9366351146        3.2204237910        1.4018875468
 H          6.0708025971        0.9755935840        2.0826117906
 H          3.0598607319       -1.3080109044        2.2967125564
 H          2.8312421613        1.8711890347        0.7108416470
 H          0.9051291592        2.5630193613       -0.6808740578
 H         -0.8565680539        0.9326313968       -1.2545530740
 H         -0.8235323208       -2.5788195714        0.0845647239
 C         -0.9128035243       -2.1595977634       -1.9938212324
 C         -0.1636535185       -1.4395720542       -3.0699253479
 C          0.3753780748       -2.7233037510       -2.5192105469
 H          0.3409595069       -3.6105271710       -3.1335263285
 H          1.2456669003       -2.6656367566       -1.8800580034
 H         -0.5958815716       -1.4363391543       -4.0587952405
 H          0.3493670943       -0.5257715727       -2.8171555971
 H         -1.8224552586       -2.6651404546       -2.3028980347
