  62
        -98.94025641
 C          2.0121210254        0.1031829725       -0.4992100886
 C          2.8091575144       -0.5699383478        0.4599948605
 C          4.1321998541        0.0216947228        0.7129124578
 C          4.4958770070        1.1578461319        0.0934143181
 C          5.7941882747        1.8950417016        0.2800083738
 C          6.9498514878        1.3518156238       -0.5714756218
 C          7.5171712251        0.0065615869       -0.1163546839
 H          8.4513592141       -0.1472987892       -0.6602180970
 H          7.7634501525        0.0579400200        0.9446893721
 C          6.5922316337       -1.1908863922       -0.3752304946
 H          5.8292116231       -0.9096621931       -1.1047995945
 H          7.1690809784       -2.0079013431       -0.8145843720
 C          5.9041315857       -1.7418933836        0.8737466340
 H          6.6542673403       -2.1482865557        1.5557345822
 H          5.2466855257       -2.5604073229        0.5699896950
 C          5.0586293181       -0.7125548984        1.6349317703
 H          4.4459697141       -1.2455899881        2.3659957279
 H          5.7045646695       -0.0120803377        2.1637364262
 H          7.7537933502        2.0908201847       -0.5384082829
 H          6.6133297512        1.2739486195       -1.6079807124
 H          6.0773589596        1.8784019991        1.3329197259
 H          5.6075696963        2.9305195828       -0.0131671303
 O          3.6834492718        1.7988652424       -0.7893796595
 C          2.4433487206        1.2798809261       -1.1179174326
 O          1.8192566898        1.9479448986       -1.9682043236
 O          2.4567712254       -1.6020176838        1.0839968136
 C          0.6309154940       -0.3739751482       -0.9174648612
 C         -0.4241137403        0.2078419120       -0.0128396336
 C         -0.3382706941        0.0775218426        1.3698360022
 C         -1.3169561184        0.6124189273        2.1873892383
 C         -2.4025778597        1.2784214031        1.6454092742
 C         -2.5008258241        1.4071843418        0.2668912508
 C         -1.5143658142        0.8739555296       -0.5525124902
 H         -1.5877302101        0.9929583441       -1.6251972977
 N         -3.6285155141        2.0489397261       -0.2856469377
 S         -5.1055393780        1.3435708149        0.0910034480
 O         -6.0156079203        1.7733128104       -0.9460291163
 O         -5.4679191947        1.6908098989        1.4411081974
 C         -4.7819274263       -0.4056543748       -0.0322178279
 C         -4.4917087829       -1.1297282655        1.1064409887
 C         -4.1314811832       -2.4617163675        0.9782252909
 C         -4.0675743402       -3.0433175726       -0.2780928371
 C         -4.3726102265       -2.3051821420       -1.4115814290
 C         -4.7263260143       -0.9712456281       -1.2908413104
 H         -4.9711364720       -0.3641293047       -2.1479889142
 H         -4.3264184363       -2.7625897590       -2.3868872395
 H         -3.7752737077       -4.0765078763       -0.3756663112
 H         -3.8947132012       -3.0388246219        1.8575207702
 H         -4.5558383359       -0.6425547121        2.0652164696
 H         -3.5579002582        2.1885669320       -1.2837796830
 H         -3.1784883901        1.6957889225        2.2667982738
 H         -1.2354292845        0.5083469020        3.2587457489
 H          0.5006420545       -0.4534100773        1.7930494652
 H          0.4755024657        0.0513535863       -1.9215709829
 C          0.5287831520       -1.8888646008       -1.0453563829
 C         -0.3549696193       -2.7365689492       -0.1847576347
 C         -0.7166747373       -2.4989492348       -1.6176723268
 H         -0.6189951578       -3.3098731421       -2.3230723337
 H         -1.5456121610       -1.8355968241       -1.8156906160
 H          0.0183728876       -3.7065237142        0.1052076558
 H         -0.9490420115       -2.2531265571        0.5745564055
 H          1.4704055747       -2.3336026573       -1.3488748651
