  62
        -98.94208442
 C         -2.8027696036       -0.9907677402        0.3516440991
 C         -2.4128925549       -0.3071295736       -0.8290365961
 C         -2.8431342131        1.0949296550       -0.9222031322
 C         -3.6273172737        1.6252485748        0.0324592148
 C         -4.1093517476        3.0485558457        0.0946202391
 C         -3.1018696430        3.9976842133        0.7597411479
 C         -1.8576202543        4.3167851280       -0.0716651879
 H         -2.1619959848        4.6704888762       -1.0572132416
 H         -1.3408890056        5.1400293617        0.4256062290
 C         -0.8760694335        3.1456970973       -0.2306283672
 H         -1.0899105161        2.3830294101        0.5237055943
 H          0.1476738817        3.4852941551       -0.0494009106
 C         -0.8926687691        2.4913800571       -1.6125351665
 H         -0.1605098410        1.6782337486       -1.6128807817
 H         -0.5733396179        3.2195673186       -2.3617278636
 C         -2.2588465967        1.9234377454       -2.0253203648
 H         -2.9350183124        2.7329257728       -2.2993221198
 H         -2.1120766464        1.2761470621       -2.8930002627
 H         -3.6220314249        4.9355429520        0.9668424482
 H         -2.7981591573        3.5676430044        1.7173499582
 H         -4.3443766525        3.4056438044       -0.9076197172
 H         -5.0245420510        3.0459366655        0.6903365894
 O         -4.0739349903        0.9009068504        1.0932811929
 C         -3.6096774057       -0.3878929630        1.3181171702
 O         -3.9807074041       -0.8813917052        2.4022197980
 O         -1.7231706805       -0.8167222308       -1.7473821378
 C         -2.2169068842       -2.3496792391        0.7019110018
 C         -0.7315403656       -2.3051684656        0.4252481719
 C         -0.0481796717       -3.2432538020       -0.3350012391
 C          1.3057929440       -3.0902786222       -0.5835393675
 C          2.0032248856       -2.0027100287       -0.0918450223
 C          1.3280875708       -1.0568381420        0.6687484404
 C         -0.0185961373       -1.2279054772        0.9392356614
 H         -0.5414922289       -0.4839819473        1.5307184532
 N          2.0187064965        0.0692836616        1.1569772566
 S          2.8298441819        1.0163862657        0.0250077695
 O          2.8253640913        2.3539842156        0.5773734944
 O          2.2799746911        0.8610333531       -1.2995816140
 C          4.4885359457        0.3711669731        0.0786643602
 C          5.1630337457        0.4115924635        1.2832471139
 C          6.4515495846       -0.0939034949        1.3461931802
 C          7.0409563434       -0.6272859273        0.2094720605
 C          6.3518569118       -0.6575745522       -0.9931807674
 C          5.0620789318       -0.1536940027       -1.0624668847
 H          4.4857331442       -0.1592843109       -1.9741301449
 H          6.8118183969       -1.0717978560       -1.8759644257
 H          8.0436344839       -1.0213027433        0.2610884062
 H          6.9907671589       -0.0715037027        2.2794553081
 H          4.6694858383        0.8384600393        2.1403701691
 H          1.4468835379        0.6598874257        1.7442544202
 H          3.0516593084       -1.8681861230       -0.3032533734
 H          1.8222620870       -3.8239311631       -1.1836257216
 H         -0.5795064937       -4.0783144069       -0.7609189742
 H         -2.3545729083       -2.4437721621        1.7925432529
 C         -2.9231268066       -3.5413866173        0.0757366035
 C         -4.3579052215       -3.4491156281       -0.3482117514
 C         -3.2794523868       -3.5855087106       -1.3784863023
 H         -3.1877042030       -4.5274561584       -1.8993887266
 H         -3.0242936731       -2.7262772210       -1.9778228433
 H         -5.0028023623       -4.2942071800       -0.1589475564
 H         -4.8498375862       -2.4927605123       -0.2434946199
 H         -2.6203539696       -4.4781213901        0.5334009566
