  62
        -98.93860079
 C         -2.0795845080       -0.9274541265       -0.4516552968
 C         -3.1372038999       -1.1734409029        0.4551239123
 C         -4.3995346340       -0.4435705842        0.2303657322
 C         -4.4737449680        0.4133028372       -0.8051041872
 C         -5.6255546871        1.2983623352       -1.2008079999
 C         -5.7640540242        2.5298648725       -0.2910259579
 C         -5.6168902946        2.2466308214        1.2017415544
 H         -4.6432384517        1.7883130830        1.3849820864
 H         -5.6249197074        3.2072104057        1.7237334875
 C         -6.7129367775        1.3751062059        1.8104335860
 H         -6.5305579383        1.3305243978        2.8872169582
 H         -7.6805366633        1.8585071655        1.6579698104
 C         -6.7978132160       -0.0590325518        1.2838095527
 H         -7.2799135117       -0.0916395191        0.3104736898
 H         -7.4426734187       -0.6185934683        1.9677880798
 C         -5.4657251292       -0.8008610455        1.2379656714
 H         -5.6670052270       -1.8683997271        1.0870073056
 H         -4.9854677085       -0.7354110252        2.2208509242
 H         -6.7334001190        2.9931678046       -0.4826139395
 H         -4.9867846830        3.2452142234       -0.5712820432
 H         -5.4234288276        1.6397549075       -2.2184986720
 H         -6.5478258954        0.7254137070       -1.2211185352
 O         -3.4252802384        0.6243033202       -1.6506708031
 C         -2.2122914166       -0.0239169613       -1.5050327258
 O         -1.3641115197        0.2818373732       -2.3652615057
 O         -3.0357213014       -1.9722191543        1.4250368990
 C         -0.7606406414       -1.6500219685       -0.2323606651
 C          0.2669308122       -0.6321897525        0.1954470138
 C          0.2587352897       -0.1793049130        1.5123580524
 C          1.1456766978        0.7941143645        1.9313604723
 C          2.0589364600        1.3394988193        1.0457186776
 C          2.0763068965        0.8928579051       -0.2687999667
 C          1.1942373544       -0.0969786186       -0.6846558110
 H          1.2093021008       -0.4209822471       -1.7129697580
 N          2.9970502406        1.4433080326       -1.1735246947
 S          4.5731951323        1.6763306334       -0.6728945359
 O          4.6661673442        2.8865766086        0.1059062630
 O          5.3647893192        1.6428510464       -1.8826336646
 C          4.9467748853        0.2676216646        0.3569297359
 C          5.2636390089        0.4493144543        1.6874924224
 C          5.5206258636       -0.6628283171        2.4734300174
 C          5.4531871683       -1.9309347271        1.9181887543
 C          5.1366353708       -2.0970615717        0.5783597942
 C          4.8796763727       -0.9889348557       -0.2119605112
 H          4.6365434192       -1.0831986772       -1.2580550845
 H          5.0860630565       -3.0845089046        0.1484236885
 H          5.6491503354       -2.7959833149        2.5318932459
 H          5.7690540373       -0.5365200128        3.5148893434
 H          5.3038601810        1.4527825214        2.0788796633
 H          2.9441267363        1.0589569904       -2.1045581851
 H          2.7439867408        2.1149053872        1.3478923545
 H          1.1246220384        1.1370609626        2.9545863018
 H         -0.4650518675       -0.5941513739        2.1999533312
 H         -0.9406667394       -2.3285405358        0.6123555693
 C         -0.3552205042       -2.4697761489       -1.4385899708
 C          0.7004190515       -3.5230088078       -1.2884311572
 C         -0.7297846820       -3.9191987488       -1.4959840066
 H         -1.0179208316       -4.3382018300       -2.4485590472
 H         -1.2750495650       -4.3277474212       -0.6579154634
 H          1.3975297280       -3.6752702587       -2.0981951918
 H          1.1255943276       -3.6617217722       -0.3061676216
 H         -0.3939625467       -1.9145824217       -2.3680279113
