  62
        -98.93747571
 C         -1.7142527907       -1.0569800914       -0.7267177458
 C         -1.9108686224        0.2920748671       -0.3547759406
 C         -3.3090101823        0.7671984148       -0.2997014737
 C         -4.2987062635       -0.0914287482       -0.6080379473
 C         -5.7841058125        0.1519194682       -0.5767278692
 C         -6.3531401423        0.1480655429        0.8518811686
 C         -5.5168171355        0.9049588133        1.8806932345
 H         -5.9601893362        0.7269069527        2.8640891398
 H         -4.5082536223        0.4876166655        1.9009292750
 C         -5.4373375365        2.4152232264        1.6712049518
 H         -6.4456872159        2.8342633931        1.7027443853
 H         -4.8789518897        2.8303343920        2.5141577171
 C         -4.7603205334        2.8764864397        0.3792214033
 H         -4.5700332442        3.9492977267        0.4775844813
 H         -5.4239236162        2.7583567093       -0.4730879193
 C         -3.4123683514        2.2206923844        0.0953185545
 H         -2.9160909357        2.7796641386       -0.7070732573
 H         -2.7644004463        2.3384465682        0.9712420514
 H         -7.3622532439        0.5625628950        0.8229319615
 H         -6.4250027251       -0.8909801410        1.1827797943
 H         -6.0211760880        1.0806327636       -1.0870672469
 H         -6.2477669653       -0.6630351388       -1.1369577339
 O         -4.0576951183       -1.3861843936       -0.9658987803
 C         -2.7791070889       -1.9027254852       -1.0303736438
 O         -2.7198017161       -3.1055215884       -1.3599050204
 H          2.1660143171       -0.5874012678       -0.1704065172
 C          1.6214381681       -0.9221821091        0.6949075991
 C          0.3634885398       -1.4830409024        0.5494968467
 C         -0.3042862301       -1.9292932112        1.6875282933
 C          0.2694406427       -1.8005134387        2.9370157285
 C          1.5204158057       -1.2255471991        3.0797638035
 C          2.1982388534       -0.7822717293        1.9506240600
 N          3.4426871462       -0.1572001170        2.0711994541
 S          4.5575560492       -0.1085539906        0.8365624233
 O          4.6790338661       -1.3845570724        0.1700935737
 O          5.7627581044        0.3858145221        1.4680092234
 C          3.9387550455        1.1181110990       -0.2963291182
 C          4.1240328687        0.9242790854       -1.6509517479
 C          3.6550196299        1.8808273136       -2.5369051980
 C          3.0137356226        3.0110460365       -2.0542239980
 C          2.8418442540        3.1941599472       -0.6909140618
 C          3.3100070646        2.2420725481        0.2000519411
 H          3.1821395652        2.3515450055        1.2639695635
 H          2.3369723602        4.0713624934       -0.3196135659
 H          2.6424140385        3.7517300080       -2.7449917270
 H          3.7865606109        1.7398622624       -3.5980902771
 H          4.6183908378        0.0244174146       -1.9819757730
 H          3.8551835673       -0.1486115447        2.9909140987
 H          1.9649649715       -1.1158745251        4.0570340502
 H         -0.2609489331       -2.1496172430        3.8103956154
 H         -1.2843365985       -2.3742133515        1.5768430147
 C         -0.3084948356       -1.6253263269       -0.7943592025
 H         -0.4229828981       -2.6984356520       -1.0076405755
 C          0.4596461875       -0.9806335224       -1.9292825131
 C          1.5717274682       -1.7226138720       -2.6052268314
 C          0.2729654421       -1.5045064284       -3.3201611665
 H          0.2457104357       -0.7996756697       -4.1372894205
 H         -0.3912632038       -2.3471626978       -3.4477143741
 H          2.4375125137       -1.1668461211       -2.9315754498
 H          1.7995066437       -2.7164278279       -2.2499277794
 H          0.5602156698        0.0921515541       -1.8077725292
 O         -0.9667475453        1.0745320069       -0.0716960004
