  62
        -98.94379129
 C         -1.9049492083       -1.2617217657        0.3332645242
 C         -1.9282833876       -0.1976673717       -0.6009281406
 C         -3.2613746774        0.3166535358       -0.9481360122
 C         -4.3518659774       -0.2472300338       -0.3975814995
 C         -5.7612645798        0.2193691627       -0.6167221284
 C         -6.1722958163        1.2539050168        0.4405244239
 C         -5.1567546200        2.3808571417        0.6307344519
 H         -4.2356783435        1.9658603326        1.0467660661
 H         -5.5657952452        3.0643640721        1.3780684538
 C         -4.8262903196        3.1613345662       -0.6491812044
 H         -4.8303434799        4.2288681441       -0.4187974874
 H         -5.6003805736        2.9891652252       -1.3979814531
 C         -3.4572649866        2.8409209514       -1.2521699234
 H         -2.6877036339        2.9248895509       -0.4802484303
 H         -3.2380347220        3.5935705899       -2.0142913028
 C         -3.3268747485        1.4643152632       -1.9160594798
 H         -2.3800290078        1.4498144634       -2.4634064312
 H         -4.1396245915        1.3220583181       -2.6310421940
 H         -6.2970991733        0.7408937505        1.3971001974
 H         -7.1371424083        1.6762634210        0.1540195966
 H         -5.8466921729        0.6490128820       -1.6128657630
 H         -6.4253616056       -0.6436515934       -0.5447622501
 O         -4.2898638913       -1.2875563221        0.4728869188
 C         -3.0693767375       -1.8105048698        0.8693867113
 O         -3.1513808798       -2.7465044395        1.6911367997
 H          2.1500204542       -1.6979941219        0.7236626629
 C          1.6997085664       -0.8781606957        1.2624471892
 C          0.3189331465       -0.8058917886        1.3838277075
 C         -0.2232623009        0.2546110346        2.1031533812
 C          0.5866088573        1.2326354862        2.6496359453
 C          1.9616526068        1.1673214799        2.5078084265
 C          2.5159331887        0.0988011959        1.8189969692
 N          3.9220506792        0.0362725177        1.6767026981
 S          4.5777410507        1.1026200632        0.5593851783
 O          6.0055231183        0.8805264038        0.5890890658
 O          4.1260656217        2.4331369272        0.8721300445
 C          3.9124345087        0.5515268070       -1.0003475149
 C          2.5971039822        0.8426124077       -1.3013839127
 C          2.0413266932        0.3152466033       -2.4563987856
 C          2.8092993383       -0.4844117891       -3.2886141736
 C          4.1330410002       -0.7597344777       -2.9775942271
 C          4.6893819851       -0.2472514007       -1.8171581354
 H          5.7100348430       -0.4436771218       -1.5303285376
 H          4.7271207137       -1.3795145511       -3.6300695032
 H          2.3709593331       -0.8971745627       -4.1840076883
 H          1.0030597882        0.5137843811       -2.6694135364
 H          2.0162338821        1.4644605073       -0.6397807901
 H          4.2589105582       -0.8945045215        1.4692636208
 H          2.6079574850        1.9317295682        2.9067325805
 H          0.1430203109        2.0546458716        3.1913921093
 H         -1.2969985271        0.3122691432        2.2207665093
 C         -0.5809081653       -1.8547192627        0.7745260190
 H         -0.8236411800       -2.5909349418        1.5555717044
 C          0.0725777781       -2.5750783402       -0.3900882618
 C          0.8606964057       -3.8306693064       -0.1698802867
 C         -0.4848053310       -3.8953211887       -0.8262743081
 H         -0.5369361792       -4.1110533758       -1.8826392261
 H         -1.3134396961       -4.2933095036       -0.2581278650
 H          0.9446360201       -4.2018225016        0.8407641793
 H          1.7342090400       -4.0051367787       -0.7804293237
 H          0.4055604714       -1.8918058602       -1.1631176344
 O         -0.8953704950        0.3009977459       -1.1149511672
