  62
        -98.94330565
 C         -1.8802112372        0.8351523444       -0.6561426543
 C         -2.2665933285        0.4311185597        0.6448266559
 C         -3.7109597043        0.4611926064        0.9180495378
 C         -4.5551047995        0.8912390102       -0.0375244618
 C         -6.0504513741        0.9186802955        0.0877498912
 C         -6.6723903844       -0.3876493938       -0.4255503318
 C         -6.0144773834       -1.6473830952        0.1378451778
 H         -6.5534539858       -2.5056577433       -0.2693975780
 H         -4.9877832468       -1.7092908988       -0.2305503596
 C         -6.0069300863       -1.7281356128        1.6707948707
 H         -6.7448110763       -1.0379028872        2.0812962953
 H         -6.3044732447       -2.7356040891        1.9692988886
 C         -4.6456613743       -1.4564570348        2.3141732994
 H         -3.8840806942       -2.0805059366        1.8393973073
 H         -4.7020552650       -1.7523284721        3.3651103208
 C         -4.1669587097        0.0003816000        2.2737659925
 H         -4.9483131627        0.6559681177        2.6632368533
 H         -3.2923365941        0.0802902541        2.9257452904
 H         -7.7347533240       -0.3867036557       -0.1750401724
 H         -6.5801013936       -0.4107451408       -1.5139870651
 H         -6.3205426498        1.0774536904        1.1298012769
 H         -6.4306399145        1.7501482364       -0.5080525115
 O         -4.1408851480        1.3076768242       -1.2620902062
 C         -2.7997707817        1.2731727433       -1.6079816189
 O         -2.5572102152        1.6504731753       -2.7729479217
 H          2.0974165679        0.0918800766       -0.1925752865
 C          1.4736692541       -0.7565915916       -0.4204076634
 C          0.1714845177       -0.5692836862       -0.8589438761
 C         -0.5945210802       -1.6915953414       -1.1626057047
 C         -0.0821921270       -2.9637338104       -1.0007698632
 C          1.2165722634       -3.1455951274       -0.5594317745
 C          1.9989307398       -2.0338370796       -0.2768194401
 N          3.3217439189       -2.1795673113        0.1691180696
 S          4.5149903268       -1.1999008322       -0.4785659296
 O          4.2209286426       -0.8370561958       -1.8452620873
 O          5.7457413194       -1.9332914810       -0.2683101057
 C          4.5380080305        0.2513876788        0.5520769710
 C          4.8270236234        1.4712665134       -0.0265229632
 C          4.9017140803        2.5965262084        0.7799009127
 C          4.6863252168        2.4822118730        2.1445351346
 C          4.3975938815        1.2493028241        2.7100162610
 C          4.3271194127        0.1197175196        1.9103606513
 H          4.1024636784       -0.8519169723        2.3173246893
 H          4.2270992901        1.1650112771        3.7712877294
 H          4.7417884047        3.3591731231        2.7701180306
 H          5.1253135137        3.5557685891        0.3404085425
 H          4.9739522393        1.5177079490       -1.0937509999
 H          3.6362351406       -3.1354512086        0.2544624258
 H          1.6203553953       -4.1391926913       -0.4364143517
 H         -0.6955677216       -3.8228014435       -1.2285377563
 H         -1.6058620616       -1.5532961028       -1.5209585500
 C         -0.4150264524        0.8092898049       -1.0470772070
 H         -0.3796616008        1.0466485980       -2.1213025918
 C          0.3356787590        1.8849828137       -0.2872877612
 C          1.5007464690        2.5900834587       -0.9118731765
 C          0.1980742814        3.3086507402       -0.7332868434
 H          0.1330163953        4.0813095569        0.0177038892
 H         -0.4105529223        3.4951789591       -1.6064395050
 H          2.3295317806        2.8702045330       -0.2791857326
 H          1.7885350974        2.2959016306       -1.9103988062
 H          0.3646815947        1.6932917452        0.7793149600
 O         -1.4514412324        0.0607007020        1.5285897024
