  62
        -98.93361664
 C         -2.6047838400       -0.2995849305        0.5951147295
 C         -2.1903574553        0.2396604697       -0.6471583741
 C         -1.9607567714        1.6977752188       -0.6958144331
 C         -2.0932776969        2.4277059901        0.4260335877
 C         -1.9481547925        3.9129466661        0.6867619351
 C         -1.4279876938        4.8447624973       -0.4029877869
 C          0.0644474914        4.6958801924       -0.7051949365
 H          0.2948976569        5.2736607393       -1.6027177669
 H          0.6271160866        5.1304299317        0.1248255972
 C          0.5680362911        3.2664538881       -0.8938144317
 H          1.6533617070        3.3039468429       -1.0283786571
 H          0.3906826191        2.6782826719        0.0093271265
 C         -0.0105007995        2.5132972983       -2.0888903273
 H          0.5030288211        1.5482416839       -2.1417349362
 H          0.2030151585        3.0610231639       -3.0100229212
 C         -1.5200311243        2.2376877722       -2.0263285209
 H         -2.0921854067        3.1221426393       -2.2972669318
 H         -1.7460276477        1.4590670261       -2.7613774202
 H         -1.5903249737        5.8655514760       -0.0465919776
 H         -2.0208169238        4.7289572642       -1.3055811922
 H         -1.3084496782        4.0013179073        1.5710078665
 H         -2.9436029188        4.2538808203        0.9922802558
 O         -2.4568924914        1.8556611223        1.6132992682
 C         -2.6851694379        0.4985846276        1.7355372873
 O         -2.9484950606        0.1275032857        2.8988267201
 O         -2.0305086152       -0.4508152071       -1.6861677261
 C         -2.7861161727       -1.7974644698        0.7963583618
 C         -1.5714533877       -2.4838317290        0.2225832510
 C         -1.5989952568       -3.4330814712       -0.7892980234
 C         -0.4186963872       -3.9267290412       -1.3198742842
 C          0.8090017152       -3.4792097835       -0.8641804769
 C          0.8427842192       -2.5515683664        0.1651044989
 C         -0.3356400141       -2.0771899771        0.7107843397
 H         -0.2963864988       -1.3284524790        1.4944515008
 N          2.1004394076       -2.0243154034        0.6036706194
 S          2.2702856955       -0.4273692604        0.0580421661
 O          1.5707768168        0.4832751938        0.9425239472
 O          1.9187406030       -0.3924154237       -1.3372680224
 C          4.0307244007       -0.2032007602        0.2370670246
 C          4.5313025462        0.5333121191        1.2923027056
 C          5.9051665639        0.6567914896        1.4324039125
 C          6.7496228208        0.0407840252        0.5217347256
 C          6.2317419244       -0.6959329666       -0.5334633616
 C          4.8597816433       -0.8215999504       -0.6789209819
 H          4.4090612815       -1.3767320736       -1.4847505226
 H          6.8915303685       -1.1719472600       -1.2408079973
 H          7.8180108704        0.1368188959        0.6342074963
 H          6.3094846601        1.2310455894        2.2504827510
 H          3.8364122890        0.9994735196        1.9726124594
 H          2.1480249474       -1.9906869644        1.6148886387
 H          1.7323206951       -3.8254412597       -1.2986554554
 H         -0.4576773449       -4.6515296674       -2.1188253253
 H         -2.5455942869       -3.7561391592       -1.1913456309
 H         -2.7670451517       -1.9354068777        1.8907427195
 C         -4.1091895186       -2.3675237838        0.3135562248
 C         -5.3419534495       -1.5150939490        0.2809996967
 C         -4.7265139697       -1.9921305105       -0.9984113606
 H         -5.2420893669       -2.7607163467       -1.5556988929
 H         -4.1974121611       -1.2841080934       -1.6152624750
 H         -6.2768900891       -1.9507050804        0.6000344741
 H         -5.2311920454       -0.4728687174        0.5445198580
 H         -4.2448854195       -3.3946482654        0.6387035284
