  62
        -98.93750282
 C         -2.2765588799       -0.6279260895       -0.2266527021
 C         -3.5660182099       -1.1294302486       -0.5404749038
 C         -4.6872721099       -0.5639482213        0.2203905682
 C         -4.4351739200        0.3433984655        1.1810142213
 C         -5.4843226200        1.0462571026        1.9918365337
 C         -5.9173164402        2.3583034948        1.3224543281
 C         -6.2611510803        2.2133202698       -0.1601226923
 H         -6.5797840904        3.1950881210       -0.5171187790
 H         -5.3553842803        1.9509704818       -0.7120146633
 C         -7.3555617602        1.1796928307       -0.4609671458
 H         -8.0572388203        1.6117011030       -1.1775071843
 H         -7.9156228501        0.9584303176        0.4482379435
 C         -6.8438257801       -0.1265510472       -1.0709299002
 H         -7.7047596500       -0.6898027460       -1.4404153121
 H         -6.2056730501        0.0952251458       -1.9302441995
 C         -6.0690790899       -1.0471228803       -0.1197216834
 H         -6.6529415798       -1.2139687034        0.7876024361
 H         -5.9332909498       -2.0082443686       -0.6241877966
 H         -6.7814568602        2.7513306729        1.8610681595
 H         -5.1018997303        3.0795481946        1.4152729705
 H         -5.0662557500        1.2705856794        2.9745298444
 H         -6.3424667700        0.3880694121        2.1135749215
 O         -3.1814934900        0.7571600746        1.4952543026
 C         -2.0695198500        0.2891977071        0.8043629210
 O         -0.9908151000        0.7576355858        1.2148324825
 O         -3.7670025298       -2.0151633757       -1.4135506267
 C         -1.1036892799       -1.1758134767       -1.0183463740
 C          0.0312177002       -1.5519388696       -0.0991445354
 C         -0.2109479497       -2.4771663531        0.9133847315
 C          0.7919957404       -2.8434478859        1.7884810502
 C          2.0603961603       -2.3044722254        1.6659423220
 C          2.3186986602       -1.3943503219        0.6476837351
 C          1.3063476001       -1.0248187491       -0.2271914137
 H          1.5242855100       -0.2967146465       -0.9889651612
 N          3.6207076801       -0.8924253212        0.4749818267
 S          3.9239897199        0.6196473612       -0.2014437282
 O          3.3469562598        1.6746153584        0.6016062354
 O          3.5574046898        0.5965504558       -1.5949685583
 C          5.7023237899        0.6417799009       -0.0576004782
 C          6.3019786699        1.3745369176        0.9486332942
 C          7.6839541899        1.3588366574        1.0578624641
 C          8.4384090199        0.6122024205        0.1657055015
 C          7.8224168600       -0.1178081962       -0.8401914409
 C          6.4417192100       -0.1048917460       -0.9556328708
 H          5.9199936300       -0.6485268235       -1.7257334926
 H          8.4124882900       -0.6952103738       -1.5334862829
 H          9.5133657199        0.6012358503        0.2531340414
 H          8.1655116099        1.9279417548        1.8367136960
 H          5.6752998198        1.9459691752        1.6145874162
 H          4.1990436602       -1.0320024538        1.2925417062
 H          2.8435905904       -2.5860242076        2.3533698710
 H          0.5856395505       -3.5515138386        2.5772143179
 H         -1.2050184096       -2.8923983435        1.0137925102
 H         -1.4916248698       -2.1052003452       -1.4700868172
 C         -0.6691747601       -0.2844201127       -2.1723357311
 C         -1.6163703302        0.6829794493       -2.8147338477
 C         -0.4615492803        1.1902627867       -2.0067839261
 H          0.3719704797        1.6494421686       -2.5194107546
 H         -0.6541768903        1.6152605334       -1.0337262946
 H         -1.5851479403        0.7959530129       -3.8879406274
 H         -2.6077907502        0.7684767578       -2.3936921474
 H          0.0192230999       -0.7930428904       -2.8411156128
