  62
        -98.94279315
 C          0.9657120503        1.5736023993       -0.8416785309
 C          2.1603953604        1.9224568597       -0.1600331014
 C          3.2571389205        0.9488569098       -0.2175404013
 C          3.0786193404       -0.1976339005       -0.8984892008
 C          4.0921712205       -1.2999507704       -0.9991263906
 C          3.9164902909       -2.3283078300        0.1265520399
 C          3.7917610813       -1.7085299594        1.5179566297
 H          2.8678585912       -1.1276699594        1.5681412797
 H          3.6966783816       -2.5285139991        2.2329014501
 C          4.9738305813       -0.8168084991        1.9229448690
 H          5.2623659316       -1.0592555386        2.9479764890
 H          5.8336900711       -1.0290519693        1.2863695088
 C          4.6776624511        0.6834692109        1.8870923384
 H          5.4962664212        1.2042288412        2.3913648179
 H          3.7632041213        0.8913694410        2.4485500186
 C          4.5353037307        1.3008500103        0.4902697082
 H          4.5218536506        2.3884758503        0.6078817777
 H          5.4002082305        1.0327204101       -0.1202432220
 H          4.7678982510       -3.0110101699        0.1055060900
 H          3.0098209109       -2.9011766901       -0.0721750196
 H          5.0908525605       -0.8686642403       -0.9597414710
 H          3.9605351703       -1.7995229509       -1.9601693703
 O          1.9279549203       -0.4954034309       -1.5500024003
 C          0.8409310802        0.3738379690       -1.5446293304
 O         -0.1303126100       -0.0449650814       -2.1979030399
 O          2.3044782005        3.0106979800        0.4605911981
 C         -0.1726553298        2.5747377592       -0.7593666110
 C         -1.0753825194        2.2661235897        0.4077739994
 C         -1.4269141393        3.2587833600        1.3156315590
 C         -2.2519133089        2.9710987504        2.3882934994
 C         -2.7528312088        1.6942307504        2.5656508701
 C         -2.4046775289        0.6933861801        1.6654553804
 C         -1.5614113393        0.9807042497        0.6021070901
 H         -1.2943235094        0.1980382994       -0.0905833297
 N         -2.8755776587       -0.6173876299        1.8254024311
 S         -3.3144020190       -1.5017730405        0.4702005416
 O         -3.8717573694       -0.6498418210       -0.5534969886
 O         -4.2054424388       -2.5209396704        0.9890971423
 C         -1.8239319191       -2.2996447806       -0.0788843384
 C         -1.6310820695       -2.5052865112       -1.4290025984
 C         -0.5103514695       -3.2056161913       -1.8453784384
 C          0.3908946608       -3.6845421508       -0.9094129685
 C          0.1856209311       -3.4636171302        0.4444787915
 C         -0.9344012088       -2.7679982201        0.8678498915
 H         -1.1258549785       -2.5770809997        1.9110468815
 H          0.8932196114       -3.8311489698        1.1711549314
 H          1.2599565207       -4.2323157908       -1.2403447285
 H         -0.3417307998       -3.3622806517       -2.8984690284
 H         -2.3443375297       -2.0991040516       -2.1277053784
 H         -3.5298592085       -0.7480695796        2.5835190914
 H         -3.4044181585        1.4686020007        3.3961557204
 H         -2.5143670888        3.7493795607        3.0886697191
 H         -1.0372726594        4.2573784200        1.1825537985
 H          0.3172853502        3.5388995794       -0.5467090516
 C         -0.9361657702        2.7432480686       -2.0646319709
 C         -2.2853819702        2.1543463383       -2.3315236902
 C         -2.1448243503        3.6307883185       -2.1216178009
 H         -2.2658040306        4.2890603681       -2.9687456012
 H         -2.5078032401        4.0374925188       -1.1895548710
 H         -2.4758048405        1.7879131679       -3.3292244000
 H         -2.7608442799        1.5582789286       -1.5675814098
 H         -0.2622871004        2.7869018783       -2.9152166811
