  62
        -98.94318757
 C         -1.8191421869       -0.0942027533        0.3114612743
 C         -2.7411816970       -0.6578824539       -0.6047020955
 C         -4.0078695174        0.0704909436       -0.7638012338
 C         -4.2182168081        1.2157626934       -0.0919496695
 C         -5.4458450464        2.0817684848       -0.1743574230
 C         -6.5930742390        1.6255764120        0.7376418474
 C         -7.3181907762        0.3570807253        0.2861658659
 H         -8.2260720733        0.2766916267        0.8873781749
 H         -7.6256388271        0.4670848567       -0.7542336156
 C         -6.5013934760       -0.9322117477        0.4506496686
 H         -5.6691299922       -0.7511036007        1.1347493228
 H         -7.1268993410       -1.7036076128        0.9055365293
 C         -5.9523043596       -1.5057302555       -0.8556491832
 H         -6.7808933017       -1.8136685780       -1.4971606751
 H         -5.3616022552       -2.3938121547       -0.6178197521
 C         -5.0581480734       -0.5390750277       -1.6430407695
 H         -4.5483202110       -1.1041907171       -2.4268713532
 H         -5.6628209962        0.2385443407       -2.1089177203
 H         -6.2001466781        1.4816732079        1.7468776807
 H         -7.3204328537        2.4397804903        0.7778569272
 H         -5.1394747236        3.0842550895        0.1325254863
 H         -5.7950804169        2.1262066419       -1.2063513439
 O         -3.2950545788        1.7424010632        0.7566999909
 C         -2.0947498181        1.0948053901        0.9934551444
 O         -1.3642321318        1.6693429289        1.8270943232
 H          1.5063338439        1.1058127063        0.6269030419
 C          1.4631065710        0.5674716573       -0.3085581655
 C          0.5043862433       -0.4184860758       -0.4993143304
 C          0.4520363759       -1.0715371765       -1.7268274533
 C          1.3376855778       -0.7381453060       -2.7347049010
 C          2.3015030849        0.2348223422       -2.5361084064
 C          2.3604756922        0.8957571431       -1.3155196161
 N          3.3273224438        1.8918752341       -1.0836131923
 S          4.2687854239        1.7783732676        0.2957575087
 O          3.4937423190        2.1106214349        1.4629915870
 O          5.4143146384        2.6197249373        0.0267439719
 C          4.7629074188        0.0654779797        0.3389163986
 C          5.7879379889       -0.3397694867       -0.4938056309
 C          6.1314996548       -1.6810953438       -0.5308890046
 C          5.4402649806       -2.5914387127        0.2542017047
 C          4.4150920231       -2.1689100501        1.0859540933
 C          4.0696704889       -0.8273282720        1.1302747499
 H          3.2818966057       -0.4561626855        1.7659636948
 H          3.8799523738       -2.8783651501        1.6968328842
 H          5.7027663267       -3.6369426364        0.2209313839
 H          6.9319303364       -2.0126948501       -1.1723889634
 H          6.3052454402        0.4019066752       -1.0806699570
 H          3.9083385419        2.0911808374       -1.8857355418
 H          2.9952016745        0.4913796933       -3.3224841905
 H          1.2811593930       -1.2465204870       -3.6851551899
 H         -0.3096708847       -1.8157001955       -1.8953261276
 C         -0.4682674049       -0.7270628458        0.6140704016
 H         -0.1055017878       -0.2214151176        1.5195115490
 C         -0.5658853181       -2.2118095170        0.9015700622
 C          0.5195731666       -2.8685884737        1.6972694261
 C         -0.8356807814       -2.6643003432        2.3037099370
 H         -1.4719726160       -3.5235003876        2.4542311298
 H         -0.9465443217       -1.9025191055        3.0625389263
 H          0.8185710706       -3.8708245496        1.4324041009
 H          1.3254024285       -2.2418559074        2.0481949940
 H         -1.0252814589       -2.7800822653        0.1045605467
 O         -2.5434536043       -1.7112940976       -1.2632674241
