  62
        -98.94041090
 C         -2.0489130495       -0.4445727107        0.1214250506
 C         -2.7234752694        0.7394072193        0.5164892810
 C         -4.0676129095        0.9447483994       -0.0360990186
 C         -4.5701082298        0.0332962596       -0.8885426686
 C         -5.9423597799        0.0871766998       -1.4936053683
 C         -6.9637387697       -0.6583327004       -0.6234510882
 C         -6.9143584894       -0.2713126807        0.8545902219
 H         -7.6987420192       -0.8344918907        1.3648526120
 H         -5.9599956793       -0.5951701108        1.2760275016
 C         -7.1031524592        1.2279595593        1.1249197222
 H         -7.5498841594        1.7084743795        0.2537347424
 H         -7.8020298490        1.3490415292        1.9553013024
 C         -5.8213900491        1.9692063592        1.5099562221
 H         -5.3199223889        1.4365579590        2.3219730918
 H         -6.1001251590        2.9558767291        1.8896328123
 C         -4.8089525994        2.1846676394        0.3778256718
 H         -5.3081890696        2.6394695096       -0.4804188679
 H         -4.0475331693        2.8815499693        0.7404792818
 H         -6.7696522398       -1.7304239604       -0.7033951484
 H         -7.9620800798       -0.4634619402       -1.0193563579
 H         -5.9029902502       -0.3843837800       -2.4770353484
 H         -6.2402281499        1.1272330398       -1.6121586380
 O         -3.8893127399       -1.0764692503       -1.2638850490
 C         -2.6152684498       -1.3508572005       -0.7764374394
 O         -2.1302655100       -2.4061212904       -1.2208260897
 O         -2.2196886092        1.5841954591        1.3058774211
 C         -0.6651103894       -0.6576996308        0.7079418502
 C          0.3913273304       -0.0423258007       -0.1734673599
 C          0.4455956000       -0.3213353305       -1.5353677100
 C          1.4293203199        0.2406813397       -2.3286129801
 C          2.3815687200        1.0826790295       -1.7810771502
 C          2.3404829204        1.3615505093       -0.4219110801
 C          1.3479225406        0.8012695991        0.3718725400
 H          1.3100728308        1.0374894189        1.4266738601
 N          3.3353163505        2.1860710791        0.1411878898
 S          4.9133510605        1.6469505891       -0.0564867907
 O          5.6732984608        2.2846352689        0.9941664992
 O          5.3425659001        1.9133128893       -1.4052960508
 C          4.7960824905       -0.1105779109        0.2209262790
 C          4.6928459708       -0.5585508812        1.5231963989
 C          4.4942591308       -1.9099687312        1.7537852687
 C          4.3888260805       -2.7842984710        0.6827558886
 C          4.4990728402       -2.3194312608       -0.6181495214
 C          4.7045045002       -0.9696275407       -0.8554309012
 H          4.7981922099       -0.5703917605       -1.8517238211
 H          4.4180501900       -3.0022421306       -1.4485305015
 H          4.2163030305       -3.8330468111        0.8638142484
 H          4.4125746111       -2.2764011714        2.7644853186
 H          4.7809737310        0.1525846786        2.3292147990
 H          3.1653177308        2.4142970389        1.1105035499
 H          3.1589676499        1.5244772296       -2.3833148803
 H          1.4563816296        0.0192447899       -3.3848083502
 H         -0.2879419301       -0.9886784903       -1.9618396299
 H         -0.6748501992       -0.0899161910        1.6519961304
 C         -0.3632624994       -2.1098995309        1.0538388599
 C          0.6834082204       -2.9259490708        0.3617840495
 C          0.9123606608       -2.4548800411        1.7641986795
 H          0.8785713410       -3.1741016213        2.5680207094
 H          1.6293980509       -1.6604292412        1.9081502995
 H          0.4656498003       -3.9684894908        0.1893083493
 H          1.2541038202       -2.4641031807       -0.4283160106
 H         -1.2543101293       -2.6432838810        1.3677609500
