  62
        -98.93940182
 C         -1.6724076099       -1.5873428991        0.1371369388
 C         -1.5293700500       -0.3116967489       -0.4538815007
 C         -2.5290269199        0.7112213910       -0.0799750001
 C         -3.4857419197        0.3928372807        0.8112785700
 C         -4.6089335596        1.2498048206        1.3346127706
 C         -5.7470275798        1.4318115410        0.3202829509
 C         -5.2909214301        1.7928524915       -1.0901849891
 H         -4.6498366702        0.9969586516       -1.4726465895
 H         -6.1790587803        1.8279722317       -1.7267370488
 C         -4.5703884801        3.1335017515       -1.2164245687
 H         -4.4312778204        3.3243352919       -2.2836056287
 H         -5.2117971800        3.9237706914       -0.8205211583
 C         -3.1995800199        3.2247641012       -0.5389643290
 H         -3.2954319797        3.4044010608        0.5284938610
 H         -2.6900689800        4.0975381014       -0.9568983589
 C         -2.2934451200        2.0237098213       -0.7868757897
 H         -2.2811739703        1.7977963217       -1.8593774898
 H         -1.2616255700        2.2980295912       -0.5408598898
 H         -6.3055491498        0.4941548310        0.2630626007
 H         -6.4219841797        2.2027548009        0.6965092114
 H         -5.0064578794        0.7372612703        2.2135833805
 H         -4.2272365195        2.2133661905        1.6584874408
 O         -3.5701964796       -0.8493563695        1.3715214696
 C         -2.6847017197       -1.8582307594        1.0592801190
 O         -2.8927588996       -2.9340299096        1.6563553486
 H          1.4622277097       -1.6436083686       -1.5016512619
 C          1.6359225999       -1.7486574890       -0.4430975420
 C          0.6563496901       -2.3003540592        0.3665736780
 C          0.8998817304       -2.4022114097        1.7335152479
 C          2.0973599906       -1.9698966900        2.2714833378
 C          3.0710641604       -1.4114337697        1.4609304778
 C          2.8295674701       -1.2897041892        0.0993481179
 N          3.8015182999       -0.7091672689       -0.7374563721
 S          4.4451723600        0.7768184509       -0.3200373718
 O          5.1098808998        1.2452884713       -1.5148215618
 O          5.2755031803        0.6208818905        0.8483204180
 C          3.0592104202        1.8327281308        0.0596352190
 C          2.4528954599        2.5191087012       -0.9731509707
 C          1.3676296200        3.3320248011       -0.6928203501
 C          0.9006084903        3.4337793407        0.6088015200
 C          1.5137078206        2.7297717103        1.6332652496
 C          2.6058376505        1.9221306604        1.3600672591
 H          3.1163640906        1.3726771001        2.1335465788
 H          1.1449788008        2.8076233399        2.6436280698
 H          0.0556668504        4.0683842106        0.8277571805
 H          0.8873257598        3.8784351014       -1.4888243898
 H          2.8495283597        2.4193861516       -1.9706438308
 H          3.5283188097       -0.6987462186       -1.7099064121
 H          4.0085365005       -1.0636186599        1.8637842377
 H          2.2758143108       -2.0651867003        3.3320099777
 H          0.1304479006       -2.8182038799        2.3696354880
 C         -0.6935043000       -2.7099547490       -0.1681331518
 H         -1.0416071999       -3.5782223992        0.4068954380
 C         -0.6934120904       -3.0678311385       -1.6393242019
 C         -0.0772655205       -4.3602717883       -2.0810356825
 C         -1.5653142805       -4.1870153683       -2.1195024321
 H         -2.0489184708       -4.0875552779       -3.0798166620
 H         -2.1611289404       -4.7075529385       -1.3838828822
 H          0.4619280492       -4.3843092380       -3.0157807827
 H          0.3389854896       -4.9995910486       -1.3171941629
 H         -0.5938336105       -2.2082038882       -2.2904276216
 O         -0.6167010302       -0.0184065286       -1.2705023108
