  62
        -98.94843233
 C         -0.7809086356       -1.2353404692        0.0799371747
 C         -1.5341948379       -0.6874812335        1.1443733137
 C         -2.4068666259        0.4414851426        0.7969300472
 C         -2.4269251521        0.8911990391       -0.4714368392
 C         -3.3708133647        1.9356948587       -0.9921452840
 C         -4.6683794506        1.2955403090       -1.5081805502
 C         -5.3096783583        0.3099371711       -0.5315520253
 H         -6.2314866223       -0.0515712795       -0.9923918350
 H         -4.6515142650       -0.5534107715       -0.4100494188
 C         -5.6269046440        0.9006021422        0.8492872287
 H         -6.6312246737        0.5883302742        1.1432150004
 H         -5.6294589096        1.9898756354        0.7959206332
 C         -4.6778655207        0.4510862268        1.9615351172
 H         -4.6078745717       -0.6396708585        1.9662276086
 H         -5.1062240419        0.7549430851        2.9205595420
 C         -3.2558843835        1.0225200426        1.8922954410
 H         -3.3000245470        2.1104623605        1.8103545323
 H         -2.7505977467        0.7703133348        2.8296789338
 H         -5.3773483025        2.0929073893       -1.7382599493
 H         -4.4449401837        0.7609105647       -2.4340297231
 H         -3.5967792374        2.6456948541       -0.1990607638
 H         -2.8886648517        2.4593210364       -1.8177578808
 O         -1.6291977323        0.3902350073       -1.4474835553
 C         -0.7839245335       -0.6804805474       -1.1997678476
 O         -0.1064617923       -1.0387728262       -2.1802781175
 H          1.5285717244       -0.3894204008        1.1017030165
 C          2.1038287586       -1.0598660930        0.4788456597
 C          1.5079028966       -2.2127289929       -0.0181455154
 C          2.2714374564       -3.0758455694       -0.7934066579
 C          3.5930500012       -2.7783899048       -1.0764735867
 C          4.1778254492       -1.6217451649       -0.5966210745
 C          3.4248001000       -0.7576112793        0.1919432953
 N          3.9974248866        0.4135649200        0.7052308375
 S          3.0858186959        1.7307358421        1.1393707865
 O          4.0454484964        2.8142336482        1.2037460332
 O          2.3682655320        1.4682530334        2.3627526549
 C          1.9338809968        2.0733667131       -0.1800689526
 C          0.7836736768        2.7588952433        0.1550727500
 C         -0.0857722745        3.1490175115       -0.8493054580
 C          0.1994797344        2.8318647722       -2.1679490601
 C          1.3496691595        2.1297357631       -2.4879280037
 C          2.2340735727        1.7557550450       -1.4888613677
 H          3.1356102055        1.2141565008       -1.7243075984
 H          1.5606480899        1.8681711023       -3.5121048120
 H         -0.4800844026        3.1275881592       -2.9516588046
 H         -0.9803901353        3.6952317847       -0.5971622592
 H          0.5903493771        2.9678964908        1.1956037314
 H          4.9022556589        0.6649897214        0.3373969666
 H          5.2063375192       -1.3861681203       -0.8229085882
 H          4.1740897490       -3.4540247986       -1.6853830110
 H          1.8316181739       -3.9793430994       -1.1816239937
 C          0.0650617458       -2.4692018591        0.3332594493
 H          0.0063617272       -2.6472372824        1.4178614932
 C         -0.5348136244       -3.6584272202       -0.3896039449
 C         -0.3620164874       -5.0439672632        0.1548247167
 C         -1.6982521071       -4.3702354335        0.2306175197
 H         -2.4921760169       -4.7203210725       -0.4120394803
 H         -2.0402406783       -4.0147811375        1.1919335260
 H          0.2011574566       -5.1549688499        1.0690748213
 H         -0.2411959069       -5.8607538282       -0.5406629297
 H         -0.5467590649       -3.5268616902       -1.4659996131
 O         -1.4942000522       -1.1340833293        2.3237518448
