  62
        -98.93787414
 C         -0.8838919005       -0.9707160787        0.7744210065
 C         -1.4332393651       -0.6725915911       -0.4968895953
 C         -2.3792311502        0.4548001284       -0.5328347192
 C         -2.6265830218        1.1506245609        0.5901157869
 C         -3.6273342585        2.2633390188        0.7084126252
 C         -5.0035708212        1.7262971200        1.1277111524
 C         -5.4793036691        0.5283784727        0.3055206580
 H         -4.8199096605       -0.3210234818        0.4983286808
 H         -6.4701227917        0.2549908987        0.6751615144
 C         -5.5499085338        0.7820826364       -1.2068053050
 H         -6.4916405745        0.3786502803       -1.5848733030
 H         -5.5564674768        1.8550549724       -1.4017741491
 C         -4.4275386146        0.1262315916       -2.0134494250
 H         -4.6914181881        0.1859791291       -3.0725773432
 H         -4.3596143614       -0.9326934222       -1.7524434268
 C         -3.0380648425        0.7551953073       -1.8492743402
 H         -3.1055227079        1.8318338241       -2.0123907103
 H         -2.3848232203        0.3267570691       -2.6142703418
 H         -5.7300552395        2.5370019366        1.0466766278
 H         -4.9514219131        1.4215526258        2.1757004827
 H         -3.2797534838        2.9654371808        1.4684057478
 H         -3.7048203123        2.7812643674       -0.2453879748
 O         -2.0179875532        0.8829948489        1.7751337258
 C         -1.1537235799       -0.1900934902        1.8998883754
 O         -0.6939692999       -0.3445614400        3.0510622531
 O         -1.1712730995       -1.3072181261       -1.5477774209
 C          0.0361910139       -2.1676070204        0.9925625914
 C          1.1747437525       -2.1179331993        0.0047581085
 C          1.2847842734       -2.8349946602       -1.1804525521
 C          2.3823284119       -2.6655837233       -2.0072266995
 C          3.3836414284       -1.7663836591       -1.6933832306
 C          3.2774988583       -1.0273301627       -0.5215312986
 C          2.1889191942       -1.2150514826        0.3141851878
 H          2.1276800339       -0.6401283408        1.2276624272
 N          4.2605036660       -0.0888144112       -0.1683904925
 S          3.7992531992        1.3231985987        0.5880522775
 O          4.8545802376        2.2627041401        0.2694208126
 O          3.5809311921        1.0919198345        1.9938665330
 C          2.2867660230        1.8518517780       -0.1992389076
 C          2.2139944683        1.8562124859       -1.5781007653
 C          1.0641659234        2.3297826252       -2.1878470288
 C          0.0195985350        2.8090559557       -1.4139029076
 C          0.1103638599        2.8058628240       -0.0315356177
 C          1.2494971313        2.3134453606        0.5840986798
 H          1.3467352873        2.2740343559        1.6582054902
 H         -0.7003843881        3.1806774050        0.5722343358
 H         -0.8699926509        3.1892717247       -1.8895414419
 H          0.9873098617        2.3284344800       -3.2630045958
 H          3.0472443315        1.4966950203       -2.1593188627
 H          4.9755566691        0.0668426501       -0.8637170846
 H          4.2340336754       -1.6329407717       -2.3442371118
 H          2.4486250109       -3.2365977893       -2.9207646679
 H          0.5073370394       -3.5080994370       -1.4908682710
 H          0.4868182461       -1.9909368468        1.9825596127
 C         -0.7994037235       -3.4308297826        1.1590711814
 C         -1.5269243695       -4.1421455729        0.0599787833
 C         -0.3709337269       -4.8065074408        0.7475816101
 H         -0.5852245530       -5.6219554188        1.4226866316
 H          0.5615353409       -4.9135668670        0.2177947061
 H         -2.5226959234       -4.5043145566        0.2746784380
 H         -1.4181347803       -3.7711996238       -0.9458450566
 H         -1.3406444173       -3.3683496800        2.1012681335
