  62
        -98.94591384
 C         -1.5764319260       -1.5430552202       -0.2703343174
 C         -1.4602993102       -0.1684817912       -0.5901079271
 C         -2.7277923680        0.5642925753       -0.7228697650
 C         -3.8899805104       -0.0904996942       -0.5487689050
 C         -5.2462026328        0.5511890664       -0.5857664633
 C         -5.6748454998        1.0197746875        0.8122460757
 C         -4.6085962104        1.8315938608        1.5484345821
 H         -5.0338899068        2.1273637319        2.5100634298
 H         -3.7525349719        1.1870079549        1.7609346446
 C         -4.1273828645        3.0804403250        0.7964628986
 H         -4.8476462160        3.3451234590        0.0214206306
 H         -4.0853239063        3.9159183035        1.4984181582
 C         -2.7364092476        2.9498010370        0.1727263341
 H         -2.0273441649        2.5941268479        0.9243986196
 H         -2.4117264079        3.9451003645       -0.1411577659
 C         -2.6408249107        2.0282768183       -1.0491576296
 H         -3.4000343421        2.3069864990       -1.7825285984
 H         -1.6532427621        2.1717572239       -1.4964593554
 H         -6.5842652051        1.6153378591        0.7128770065
 H         -5.9104937562        0.1393058410        1.4147605054
 H         -5.2246398866        1.3951727226       -1.2723910679
 H         -5.9664506358       -0.1834319241       -0.9497171295
 O         -3.9598709830       -1.4164309204       -0.2611372330
 C         -2.8087811851       -2.1717585902       -0.1005746787
 O         -3.0124858569       -3.3683404327        0.1901875406
 H          2.2820645781       -1.4002884428       -0.1957937374
 C          1.8143818527       -1.2771844981        0.7657223333
 C          0.5261535733       -1.7322827762        0.9918631655
 C         -0.0281257962       -1.5678829266        2.2596679889
 C          0.6860386210       -0.9539750095        3.2694496946
 C          1.9643716178       -0.4778587090        3.0331952256
 C          2.5279035117       -0.6424788889        1.7741956812
 N          3.8253964724       -0.1842656704        1.5103869383
 S          4.2520069498        0.3894373267        0.0029721013
 O          4.4187763317       -0.7073757974       -0.9182788573
 O          5.4441336791        1.1736454602        0.2561093546
 C          2.9491270275        1.4748627561       -0.5487292897
 C          2.4605845410        2.4285655447        0.3205924880
 C          1.4973915207        3.3144429454       -0.1309118084
 C          1.0493084568        3.2399155402       -1.4396510795
 C          1.5488187801        2.2764753948       -2.2995335524
 C          2.5060313919        1.3824455746       -1.8506855285
 H          2.9119781268        0.6095428186       -2.4843939877
 H          1.1885159957        2.2105040995       -3.3141214867
 H          0.3003382059        3.9335550678       -1.7895710458
 H          1.0950821851        4.0574941741        0.5392816991
 H          2.8304482833        2.4707411009        1.3325034822
 H          4.2549489867        0.3480665921        2.2521190569
 H          2.5216316454        0.0124125455        3.8168600488
 H          0.2425129082       -0.8347188875        4.2465929844
 H         -1.0334536612       -1.9263307674        2.4375395118
 C         -0.3171367841       -2.3712682538       -0.0839984825
 H         -0.6448634452       -3.3589986365        0.2704696313
 C          0.4052256284       -2.5387009528       -1.4035517034
 C          1.3385974236       -3.6928870353       -1.6060698046
 C          0.0181309734       -3.6625912827       -2.3145706747
 H          0.0065721666       -3.4831763048       -3.3792021157
 H         -0.7607266642       -4.3307223307       -1.9762561269
 H          2.2396381153       -3.5327439057       -2.1792363597
 H          1.4587030406       -4.3866278963       -0.7875264615
 H          0.6613622037       -1.5908561029       -1.8634874575
 O         -0.3604011377        0.4172702196       -0.7526682630
