  62
        -98.94009670
 C         -2.4557403259       -0.9937819862       -0.0319781131
 C         -2.5244733584        0.3915300152        0.2520954573
 C         -3.8504718635        0.8964991629        0.6313865476
 C         -4.8925794619        0.0495584074        0.7125672572
 C         -6.2999602609        0.4120623475        1.1026465299
 C         -7.1462525449        0.9607196390       -0.0544535370
 C         -6.7883379976        2.3762578634       -0.5091368314
 H         -7.5923392743        2.7144359318       -1.1657859847
 H         -6.7720314145        3.0412828229        0.3547831852
 C         -5.4570869077        2.4809926671       -1.2664133564
 H         -5.5930294310        3.0947287627       -2.1598014131
 H         -5.1502698121        1.4884588922       -1.6045845049
 C         -4.3163341268        3.1017718595       -0.4598900474
 H         -3.4137901460        3.0897301994       -1.0765201585
 H         -4.5532814301        4.1430528485       -0.2303791803
 C         -4.0016269726        2.3713127691        0.8520720159
 H         -3.0494895664        2.7472622942        1.2346307696
 H         -4.7791500009        2.5694326765        1.5894108777
 H         -8.1875196102        0.9610408546        0.2758568703
 H         -7.0662583413        0.2750831836       -0.9011234705
 H         -6.7675987801       -0.5053879985        1.4661449988
 H         -6.2790576727        1.1379406601        1.9158844991
 O         -4.7762927476       -1.2818794246        0.4597332208
 C         -3.5664309102       -1.8313870389        0.0683081158
 O         -3.6057571404       -3.0599496475       -0.1479265545
 H          1.3515678681       -0.4154130214       -0.7004975984
 C          1.1231537311       -0.7411792477        0.2999031394
 C         -0.0835562673       -1.3579469077        0.5857764881
 C         -0.3336822986       -1.7621728496        1.8952448440
 C          0.5989063420       -1.5467696828        2.8906344556
 C          1.8030347575       -0.9286861688        2.6015629333
 C          2.0604678895       -0.5169864232        1.2995466605
 N          3.2559220220        0.1504414227        0.9894342265
 S          3.9503685170       -0.0417948708       -0.5340061308
 O          3.2616787553        0.7957133073       -1.4829279850
 O          4.0374501879       -1.4466183921       -0.8669800458
 C          5.5755615010        0.6229560823       -0.2211805554
 C          6.6305514624       -0.2348302083        0.0259226345
 C          7.8811570402        0.3003788327        0.2926365986
 C          8.0540169610        1.6761513715        0.3100257201
 C          6.9856381583        2.5246417929        0.0592358650
 C          5.7331919119        1.9961952669       -0.2094559219
 H          4.8760064790        2.6147681323       -0.4192464248
 H          7.1241846581        3.5937473054        0.0708921628
 H          9.0281072995        2.0902308724        0.5172889250
 H          8.7144205209       -0.3561447824        0.4847321630
 H          6.4508770504       -1.2974069838       -0.0063178922
 H          3.9453435085        0.0882164970        1.7257876298
 H          2.5313894925       -0.7570943310        3.3795341752
 H          0.3899448315       -1.8659138930        3.9007973634
 H         -1.2754565237       -2.2458023826        2.1190426894
 C         -1.1385837442       -1.6141711051       -0.4627010432
 H         -1.3130877554       -2.6992669586       -0.5125845715
 C         -0.7536647437       -1.1212970661       -1.8415912238
 C          0.1486673052       -1.9459762011       -2.7077090411
 C         -1.3047687379       -1.8154135447       -3.0489633087
 H         -1.5824303013       -1.2189166219       -3.9050228506
 H         -1.9485658878       -2.6666186577       -2.8805201096
 H          0.8761717995       -1.4378442137       -3.3233116217
 H          0.4973017193       -2.8876328161       -2.3105103979
 H         -0.6537282102       -0.0422658763       -1.8881884705
 O         -1.5360085745        1.1683493385        0.1953006346
