  62
        -98.93881612
 C          2.7966286618        0.1419961505       -0.3262213656
 C          2.8609072259       -0.7816470106        0.7494603353
 C          2.4869689963       -2.1653917462        0.4471815855
 C          2.1150554243       -2.4934919063       -0.8029575815
 C          1.6705137476       -3.8524518999       -1.2692712179
 C          0.1865973032       -4.1314699734       -0.9910452916
 C         -0.1531073440       -4.4314511769        0.4696933802
 H         -1.1606826124       -4.8516150631        0.4841046546
 H          0.5259871976       -5.1936698301        0.8542352301
 C         -0.1250003975       -3.2013268858        1.3877465136
 H         -0.1905746728       -2.2911506009        0.7852674097
 H         -1.0092298474       -3.2032736988        2.0304081966
 C          1.0953584301       -3.1140157796        2.3049401560
 H          1.0695380391       -3.9352053392        3.0255106717
 H          1.0310206757       -2.1742303700        2.8599728286
 C          2.4461009536       -3.1473057084        1.5785738713
 H          3.2237404320       -2.8633983476        2.2922546078
 H          2.6530250233       -4.1537398273        1.2151628681
 H         -0.3995519250       -3.2706868463       -1.3237523260
 H         -0.1042346268       -4.9932174372       -1.5966155160
 H          1.8320776357       -3.8806413458       -2.3489866587
 H          2.2838925567       -4.6242016285       -0.8033443697
 O          2.1103192374       -1.5936720555       -1.8185835474
 C          2.3950322906       -0.2499566753       -1.6035076790
 O          2.2656011564        0.4522462897       -2.6250544542
 O          3.2164121101       -0.4547718785        1.9139739464
 C          3.0391285807        1.5993088437        0.0326263004
 C          1.7426768625        2.1556891052        0.5679077983
 C          1.6697922582        2.8265134810        1.7819677434
 C          0.4468133128        3.2203470998        2.2996375286
 C         -0.7285436608        2.9361911142        1.6265513376
 C         -0.6611005405        2.2840576810        0.4049615593
 C          0.5630849007        1.9150219296       -0.1234985704
 H          0.5948439506        1.3906638497       -1.0689938047
 N         -1.8691888324        1.9007014245       -0.2532593935
 S         -2.2224945174        0.2833446718        0.1299149361
 O         -1.9916320209        0.1004379623        1.5399219259
 O         -1.5180320452       -0.6074482800       -0.7691631585
 C         -3.9719930008        0.2313182803       -0.2076110826
 C         -4.8285783904        0.7968247476        0.7170582770
 C         -6.1880000700        0.8104058718        0.4506799651
 C         -6.6654041427        0.2629360531       -0.7311135863
 C         -5.7933547130       -0.3019069164       -1.6490059969
 C         -4.4316973992       -0.3171298067       -1.3884483455
 H         -3.7177139695       -0.7502688589       -2.0707565347
 H         -6.1666441720       -0.7287980059       -2.5659731891
 H         -7.7239158904        0.2752820117       -0.9376458168
 H         -6.8694136122        1.2473331831        1.1626834588
 H         -4.4102145194        1.2022474505        1.6232479578
 H         -1.7593238675        1.9385444287       -1.2596259593
 H         -1.6901793447        3.1948308448        2.0378976152
 H          0.4083112438        3.7302260373        3.2501304044
 H          2.5774914817        3.0080151935        2.3388210612
 H          3.7584457925        1.5773245032        0.8667371131
 C          3.6481062460        2.4346165368       -1.0810012639
 C          2.8888142537        3.4922210932       -1.8192744410
 C          3.9523169079        3.8840057218       -0.8406458148
 H          4.8804372973        4.2863572451       -1.2164554048
 H          3.6317108606        4.3084211476        0.0987555001
 H          3.0823843813        3.5995076190       -2.8754391750
 H          1.8584282812        3.6629366006       -1.5483585236
 H          4.3716195338        1.8719476794       -1.6608286103
