  62
        -98.93928223
 C          1.9098766541        0.7873855822        0.7155587689
 C          2.0729418937        0.2165278941       -0.5706568356
 C          2.5222812893       -1.1821471075       -0.5939504576
 C          2.6650234171       -1.8627184478        0.5564891609
 C          3.0880233161       -3.3005143642        0.6913357790
 C          4.6086644344       -3.5090404680        0.6635826607
 C          5.2661180726       -3.3255644878       -0.7049057548
 H          6.2844996576       -3.7106299618       -0.6242623792
 H          4.7434433749       -3.9364934556       -1.4413716844
 C          5.3258045508       -1.8702852913       -1.1896420886
 H          5.1598066884       -1.1981085485       -0.3445308900
 H          6.3241536638       -1.6559086671       -1.5773145912
 C          4.3270967667       -1.5293911632       -2.2957592992
 H          4.5635485712       -2.1049861472       -3.1932546654
 H          4.4329484985       -0.4688992497       -2.5377683389
 C          2.8606215301       -1.7861786296       -1.9234978591
 H          2.6539275760       -2.8562110059       -1.9184230042
 H          2.2244707202       -1.3098543298       -2.6735958214
 H          4.8028163330       -4.5290852732        1.0029823849
 H          5.0669032607       -2.8266415717        1.3832950276
 H          2.7085018643       -3.6453770821        1.6557610460
 H          2.6215296914       -3.8935782513       -0.0958543129
 O          2.4125906052       -1.3039801434        1.7713389769
 C          2.0416043605        0.0261695607        1.8784932685
 O          1.8542305870        0.4094281786        3.0526776867
 O          1.8630037421        0.8294166641       -1.6490652328
 C          1.4570531612        2.2255404211        0.8953770543
 C          0.2780999151        2.5073712799       -0.0054445649
 C          0.1796784906        3.6179787854       -0.8320771498
 C         -0.9519369316        3.8131515977       -1.6058439457
 C         -1.9997983737        2.9134700874       -1.5735231647
 C         -1.9047539752        1.7890010476       -0.7582576401
 C         -0.7799546209        1.6060763163        0.0263145103
 H         -0.7165270185        0.7366660119        0.6665830013
 N         -2.9295976771        0.8285451074       -0.7537440148
 S         -3.0789337393       -0.2663897207        0.5117624181
 O         -3.1391937123        0.4273586223        1.7804538839
 O         -2.0588472366       -1.2779392263        0.3804981884
 C         -4.6734341021       -0.9635725879        0.1236775974
 C         -4.7532650040       -1.9207988715       -0.8702875431
 C         -5.9937388856       -2.4443446674       -1.1981880752
 C         -7.1277027252       -2.0043883026       -0.5312279361
 C         -7.0318360789       -1.0453343293        0.4657027033
 C         -5.7941453473       -0.5166404403        0.7976302129
 H         -5.6686871269        0.2244349260        1.5705486970
 H         -7.9142087097       -0.7078196574        0.9849997663
 H         -8.0917404966       -2.4139834899       -0.7882555164
 H         -6.0712706384       -3.1922656937       -1.9706844362
 H         -3.8434360556       -2.2369530186       -1.3537651966
 H         -3.8208728537        1.1835620537       -1.0697927897
 H         -2.8776445348        3.0656040125       -2.1823365660
 H         -1.0167891813        4.6806299674       -2.2450999132
 H          0.9928562961        4.3228471661       -0.8852406693
 H          1.0899745545        2.2759669830        1.9353748638
 C          2.5739847850        3.2531905168        0.7795450313
 C          4.0072250615        2.8664272758        0.9886280853
 C          3.5303064393        3.2652812751       -0.3737448017
 H          3.8474834249        4.2205559228       -0.7658771153
 H          3.4102189715        2.5001450813       -1.1236409304
 H          4.6459152839        3.5452673678        1.5338427338
 H          4.2213838857        1.8232190225        1.1726246234
 H          2.2794060954        4.2186755154        1.1793988268
