  62
        -98.93923039
 C          0.9644463017        1.2449452365       -0.3456253810
 C          2.0585293062        1.4436092313        0.5349218480
 C          2.9848549464        0.3160879259        0.7220600684
 C          2.7610273615       -0.8344384412        0.0605767367
 C          3.4921046139       -2.1593405937        0.1053480928
 C          4.9190643652       -2.2465027230        0.6427481253
 C          5.9645601902       -1.4910184306       -0.1754241915
 H          6.9235439290       -1.5728794571        0.3412919343
 H          6.0686395231       -1.9784558722       -1.1480553227
 C          5.6629732619       -0.0156695036       -0.4276710107
 H          6.5038720883        0.4067240921       -0.9847642471
 H          4.7801208266        0.0755563087       -1.0637976372
 C          5.4613237963        0.8351623561        0.8255454663
 H          5.4387599177        1.8815072622        0.5093918195
 H          6.3129320253        0.7083089763        1.4967306768
 C          4.1665286234        0.5639596260        1.6142313174
 H          4.2940740299       -0.2564512231        2.3166140221
 H          3.9310146589        1.4599742528        2.1955464378
 H          4.9527429380       -1.9273781706        1.6802038570
 H          5.1916689370       -3.3053335187        0.6277047188
 H          2.8611468182       -2.8263916664        0.7019286147
 H          3.4710314531       -2.5422149389       -0.9193042270
 O          1.7015344354       -0.9787404068       -0.7839003970
 C          0.7872323662        0.0366140101       -1.0181705387
 O         -0.1001136749       -0.2809503149       -1.8341817816
 H         -1.7221592616        0.3273640818       -0.3195010464
 C         -1.9522760553        1.0988918491        0.3971150624
 C         -1.1766442592        2.2490971402        0.4397572746
 C         -1.4964136333        3.2397751140        1.3603049502
 C         -2.5727879265        3.0818621124        2.2153498971
 C         -3.3443135304        1.9353243827        2.1704785133
 C         -3.0271300236        0.9337676793        1.2578897794
 N         -3.7519193706       -0.2616387783        1.2356967410
 S         -3.8118765618       -1.2641076300       -0.0947105909
 O         -3.9855839139       -0.5214045502       -1.3210976798
 O         -4.8813983279       -2.1903179963        0.2224069290
 C         -2.2771724666       -2.1647466225       -0.0904087726
 C         -1.6032018536       -2.3707300878        1.0961859742
 C         -0.4473676576       -3.1344393496        1.0837256456
 C          0.0062872605       -3.6845829241       -0.1047743781
 C         -0.6816428117       -3.4673962886       -1.2869792176
 C         -1.8339789370       -2.6991425308       -1.2824572282
 H         -2.3854842838       -2.4881909345       -2.1846439382
 H         -0.3187773088       -3.8809611724       -2.2141827133
 H          0.9050267345       -4.2812942227       -0.1138695597
 H          0.0963843695       -3.2940133475        2.0017567533
 H         -1.9765822467       -1.9259003575        2.0041803515
 H         -4.5858062364       -0.2960396310        1.8015955155
 H         -4.1816846290        1.8088971303        2.8393128501
 H         -2.8133141578        3.8584032921        2.9254280691
 H         -0.8879090132        4.1304374656        1.4114876428
 C         -0.0014203918        2.4073531385       -0.4960542716
 H          0.5620455336        3.2958308091       -0.1790450629
 C         -0.4904435764        2.6313517032       -1.9130866928
 C         -0.9236073326        4.0053197181       -2.3247595529
 C          0.3497749945        3.4271165611       -2.8640469942
 H          0.3850389904        3.1212058669       -3.8987640560
 H          1.2848840732        3.8214585090       -2.4932817646
 H         -1.7692956777        4.0987753481       -2.9887675367
 H         -0.8494335222        4.7958550865       -1.5933483091
 H         -1.0394254726        1.7901146126       -2.3169556204
 O          2.2529646890        2.5278448302        1.1482096884
