  62
        -98.93776095
 C          1.7183134109        0.6832851022        0.1122757107
 C          2.9421362256        1.0659800291        0.7096662956
 C          4.1627593385        0.8061726822       -0.0711567539
 C          4.0595202074        0.2287757145       -1.2805453903
 C          5.1576694920       -0.0975058892       -2.2620983763
 C          6.4545890201       -0.6980482349       -1.7031205691
 C          6.2734348949       -1.6088077536       -0.4799969954
 H          5.2153898757       -1.8345974955       -0.3351149427
 H          6.7854705288       -2.5553006034       -0.6634094838
 C          6.8480691013       -1.0051216815        0.8038167695
 H          7.0232112621       -1.8095308791        1.5223282369
 H          7.8165214225       -0.5546744301        0.5756677311
 C          5.9636973650        0.0330554512        1.4931780266
 H          6.5335059053        0.4649932835        2.3193665764
 H          5.0892746338       -0.4569680026        1.9298331999
 C          5.4578463246        1.1735748061        0.5949194767
 H          5.2338173179        2.0305319675        1.2359143336
 H          6.2130068694        1.4697332327       -0.1288617969
 H          7.1478084582        0.1027882884       -1.4498075771
 H          6.9137293657       -1.2652710613       -2.5146311257
 H          5.3963772532        0.8129952123       -2.8195965502
 H          4.7054952792       -0.7971168113       -2.9694132144
 O          2.8572672504       -0.1262127871       -1.8180952280
 C          1.6634302946        0.0849733678       -1.1450584417
 O          0.6511693701       -0.2934927642       -1.7646236891
 O          3.0128352227        1.6077185001        1.8451544694
 C          0.4267584191        0.9219600307        0.8729103935
 C         -0.2660289140       -0.3899820401        1.1461876490
 C          0.4499019421       -1.4050970710        1.7772592984
 C         -0.1443917567       -2.6183369630        2.0614263874
 C         -1.4665277499       -2.8473586740        1.7207551857
 C         -2.1925381253       -1.8416734645        1.0962153619
 C         -1.5930892652       -0.6194616470        0.8197282005
 H         -2.1731597167        0.1459603127        0.3339167144
 N         -3.5479271573       -2.0266100167        0.7833654097
 S         -4.1577163791       -1.5088215630       -0.6895574706
 O         -5.4030841875       -2.2366069275       -0.8258009930
 O         -3.2061477636       -1.6788862706       -1.7611818337
 C         -4.5353934762        0.2135668024       -0.4477978231
 C         -4.0980468592        1.1394011371       -1.3740000545
 C         -4.4375488508        2.4722454117       -1.1999825787
 C         -5.2038601151        2.8525897215       -0.1083648263
 C         -5.6331613730        1.9096871398        0.8136187481
 C         -5.3011136349        0.5753129204        0.6431932562
 H         -5.6209057868       -0.1873736659        1.3330755569
 H         -6.2256013389        2.2111241299        1.6622394106
 H         -5.4643599652        3.8909299605        0.0244208406
 H         -4.1007164424        3.2061987751       -1.9150823064
 H         -3.4918060624        0.7999858010       -2.1996336021
 H         -3.9110303529       -2.9388534883        1.0205844183
 H         -1.9322350864       -3.7969736476        1.9373227473
 H          0.4249410357       -3.3959495567        2.5483008601
 H          1.4836584314       -1.2267872956        2.0408989593
 H          0.7383244493        1.3462290383        1.8394314675
 C         -0.4436883294        1.9335587204        0.1591084765
 C         -1.4029207882        2.7762369610        0.9441498059
 C         -0.1695047083        3.3930315743        0.3581315134
 H         -0.2734716525        4.0556438902       -0.4877578718
 H          0.6387758703        3.6587937119        1.0236699567
 H         -2.3585084276        3.0164660909        0.5037238521
 H         -1.4342928688        2.6263430052        2.0125880910
 H         -0.7344576146        1.6090792193       -0.8341997766
