  62
        -98.93019062
 C          2.4269180054        1.2776087124        0.1573900117
 C          2.3681455258       -0.0119056138       -0.4236675377
 C          3.6619039681       -0.6193715666       -0.7911682806
 C          4.8028848452        0.0500441515       -0.5583095359
 C          6.2159732941       -0.3584166197       -0.8912283191
 C          6.6211022364       -1.8090240460       -0.5924354674
 C          5.9238792838       -2.4429583019        0.6200900014
 H          6.6794611303       -2.8866168640        1.2710813037
 H          5.4055137255       -1.6760567789        1.1981812861
 C          4.9348464769       -3.5448873082        0.2319187347
 H          4.7626324218       -4.1841610847        1.1010969270
 H          5.3888322421       -4.1644239261       -0.5445972394
 C          3.5672285162       -3.0625689592       -0.2510231277
 H          3.0097954896       -3.9320829095       -0.6078293718
 H          3.0018257230       -2.6439815488        0.5862788851
 C          3.5935588438       -2.0047414402       -1.3663816379
 H          4.4035874397       -2.1900682457       -2.0678324153
 H          2.6439804569       -2.0625437217       -1.9059105376
 H          6.4354300992       -2.4269682041       -1.4698562556
 H          7.7004385383       -1.8078830400       -0.4317643418
 H          6.8496080900        0.3240933406       -0.3199788003
 H          6.3896103627       -0.1491778350       -1.9507172389
 O          4.8139082734        1.2819243708        0.0257886156
 C          3.6442087848        1.9137999889        0.4090113015
 O          3.8174299557        3.0175840443        0.9629387307
 O          1.2985042925       -0.6390243906       -0.6382646983
 C          1.1740795601        2.0190451598        0.5900267650
 C          0.2204222197        1.0746490445        1.2808097958
 C          0.6593522777        0.4004514351        2.4176467960
 C         -0.1686238678       -0.4882884722        3.0742828498
 C         -1.4549708830       -0.7152897208        2.6185041838
 C         -1.9101661811       -0.0334876104        1.4957640997
 C         -1.0741190438        0.8568675014        0.8367777543
 H         -1.4399094722        1.3483657953       -0.0480461251
 N         -3.2349729885       -0.2120501766        1.0611415123
 S         -3.6971359636        0.0280546190       -0.5398415178
 O         -2.9894124979       -0.8641792152       -1.4302034589
 O         -3.6214368127        1.4351500011       -0.8438702266
 C         -5.4088676599       -0.4603745735       -0.4187597004
 C         -5.8031671171       -1.7013337163       -0.8809695556
 C         -7.1336393327       -2.0711901926       -0.7588539639
 C         -8.0416714821       -1.1995917144       -0.1771530152
 C         -7.6312781594        0.0434065962        0.2819612010
 C         -6.3031902006        0.4194799589        0.1614016250
 H         -5.9401040203        1.3774389936        0.4950409070
 H         -8.3407283348        0.7192786078        0.7315396127
 H         -9.0762674174       -1.4896402129       -0.0835556997
 H         -7.4560025377       -3.0353673366       -1.1177310658
 H         -5.0632621434       -2.3426006878       -1.3326979056
 H         -3.6546018063       -1.0541057735        1.4308426875
 H         -2.1004714898       -1.4154594701        3.1267340381
 H          0.1909124017       -1.0147322245        3.9459639867
 H          1.6692532806        0.5711953658        2.7674998552
 H          1.5206369437        2.7522976415        1.3382030708
 C          0.5160895078        2.8169821001       -0.5260491512
 C          1.3083046548        3.3456645727       -1.6831199835
 C          0.3116852151        2.2480502590       -1.8966528525
 H         -0.6111730849        2.4747318290       -2.4117473496
 H          0.6719033085        1.2477392662       -2.0798148662
 H          1.0756186813        4.3327804138       -2.0532404618
 H          2.3591789307        3.0985493070       -1.7271130926
 H         -0.2710418193        3.4649878706       -0.1512344425
