  62
        -98.93525380
 C          2.1880311420        0.8542308328        0.2698683523
 C          2.7852773995       -0.1274244285        1.0998813033
 C          3.6100276511       -1.1380816372        0.4273164975
 C          3.6989661258       -1.1219529845       -0.9150228832
 C          4.5366293968       -2.0626969480       -1.7307408139
 C          5.9433296596       -1.4941765561       -1.9648017523
 C          6.6245067949       -0.9884256563       -0.6931600491
 H          7.6205341368       -0.6402089322       -0.9746214364
 H          6.0757729535       -0.1226439652       -0.3155458967
 C          6.7456859129       -2.0364349454        0.4219268905
 H          6.6132406447       -3.0362602130        0.0069801502
 H          7.7538222818       -1.9893441862        0.8389687247
 C          5.7730743046       -1.8391386091        1.5861772292
 H          5.8354519736       -0.8087244633        1.9451655976
 H          6.0870723081       -2.4908486324        2.4058340437
 C          4.3021962950       -2.1571298141        1.2883687576
 H          4.2224297670       -3.1526220309        0.8463371178
 H          3.7627427551       -2.1611373735        2.2402290861
 H          6.5567340855       -2.2712308885       -2.4244614867
 H          5.8668426404       -0.6610113962       -2.6671051892
 H          4.6003437161       -3.0208501947       -1.2183748056
 H          4.0470785973       -2.2092504459       -2.6950683742
 O          3.0600716334       -0.2071687486       -1.6842613956
 C          2.2971103521        0.8103393333       -1.1216283446
 O          1.7885815062        1.5735925461       -1.9592091935
 O          2.6336280469       -0.1567833419        2.3526116192
 C          1.3463873887        1.9277477281        0.9514266588
 C         -0.0722811235        1.8064910199        0.4541643212
 C         -0.6488986248        2.5291250374       -0.5829856063
 C         -1.9459318886        2.2630288636       -0.9895918698
 C         -2.6977383218        1.2718040980       -0.3877623558
 C         -2.1275717184        0.5251204269        0.6345450619
 C         -0.8350403454        0.8034856543        1.0481794842
 H         -0.3927950169        0.2104795480        1.8397245200
 N         -2.8748646777       -0.4968904831        1.2501833974
 S         -3.5772622975       -1.6494215908        0.2484411528
 O         -3.7253396204       -2.8281265954        1.0747754036
 O         -2.8303193495       -1.8132543798       -0.9778902512
 C         -5.1907326494       -0.9796453832       -0.0963606271
 C         -5.5921462932       -0.7845791610       -1.4032965427
 C         -6.8541484678       -0.2642690099       -1.6457392947
 C         -7.6875029832        0.0488055697       -0.5828085781
 C         -7.2703812067       -0.1565887154        0.7240036064
 C         -6.0106669507       -0.6770884799        0.9732513528
 H         -5.6489763455       -0.8552033756        1.9721006449
 H         -7.9214042245        0.0878578623        1.5477563348
 H         -8.6680071696        0.4552075498       -0.7742975321
 H         -7.1800491235       -0.1046076243       -2.6610100213
 H         -4.9071169613       -1.0370059429       -2.1972516480
 H         -2.3852956748       -0.9478342084        2.0103331376
 H         -3.7044648645        1.0619269968       -0.7098057120
 H         -2.3737002627        2.8371490125       -1.7974826456
 H         -0.0848877795        3.2780118577       -1.1081845247
 H          1.3290569763        1.6103030524        2.0063029516
 C          2.0513987001        3.2767727132        0.9629876759
 C          2.2492054738        4.1817819217       -0.2142642911
 C          1.3425547334        4.5962533975        0.9055563320
 H          1.6786413267        5.3815004800        1.5663268318
 H          0.2777210001        4.5907963799        0.7366115786
 H          3.2073593389        4.6747829561       -0.3024167253
 H          1.8386564522        3.8852808497       -1.1648846960
 H          2.8995790647        3.2277775284        1.6425388234
