  62
        -98.94594003
 C         -2.1186456452       -1.4897015926        0.0033135489
 C         -1.8360936508       -0.3709590408       -0.8171777713
 C         -2.8966060281        0.6448211666       -0.8944654167
 C         -4.0523664189        0.4457560105       -0.2351480205
 C         -5.1930252856        1.4200786010       -0.1901117663
 C         -5.0667266467        2.3677460343        1.0111022884
 C         -3.6852522658        3.0073584655        1.1511838574
 H         -3.7244874480        3.6781763049        2.0121436419
 H         -2.9538049936        2.2297568425        1.3833319162
 C         -3.2187540656        3.7881890260       -0.0852696035
 H         -4.0740975542        4.0201510608       -0.7209543926
 H         -2.7925234875        4.7384100984        0.2428161638
 C         -2.1455490886        3.0796449895       -0.9139686785
 H         -1.7332921747        3.8034294630       -1.6220803809
 H         -1.3336144550        2.7548725716       -0.2586330132
 C         -2.6223011723        1.8674117413       -1.7240574175
 H         -3.4992380468        2.1389612797       -2.3151799477
 H         -1.8197305779        1.5857674474       -2.4119178329
 H         -5.8239419878        3.1482213948        0.9157269510
 H         -5.2760887103        1.8016915575        1.9218370386
 H         -5.2143384994        1.9910300802       -1.1162821766
 H         -6.1233618989        0.8565601752       -0.1005382648
 O         -4.2981135043       -0.6590798096        0.5151481752
 C         -3.3335117135       -1.6404082173        0.6718780007
 O         -3.6714567556       -2.5823908003        1.4171750267
 O         -0.7608015139       -0.2252622381       -1.4533115973
 C         -1.0741074413       -2.5773538700        0.1872389151
 C          0.1845610604       -1.9555390298        0.7403658414
 C          0.1160367591       -1.2896385505        1.9620240266
 C          1.2302137491       -0.6714727186        2.4954196305
 C          2.4371644312       -0.6929615618        1.8172974378
 C          2.5131238257       -1.3468941087        0.5956281759
 C          1.3952493421       -1.9833957819        0.0693531336
 H          1.4747937662       -2.4860106536       -0.8814047965
 N          3.7260324412       -1.3554236954       -0.1110091832
 S          4.6307364538        0.0501459222       -0.1537750331
 O          5.3813684211       -0.0254784976       -1.3881957615
 O          5.4210344721        0.1511710590        1.0490384052
 C          3.4629842600        1.3989622136       -0.2159081010
 C          2.4599431269        1.3699182428       -1.1638486740
 C          1.5563186412        2.4180169139       -1.2153332462
 C          1.6717697024        3.4749985346       -0.3259280897
 C          2.6880652248        3.4928751285        0.6167767469
 C          3.5923523655        2.4448743175        0.6756824875
 H          4.3923862378        2.4141148120        1.3977296456
 H          2.7754855073        4.3162558060        1.3074159527
 H          0.9634819670        4.2876364520       -0.3680089848
 H          0.7581158686        2.3891473231       -1.9389498187
 H          2.3758525787        0.5373514659       -1.8429662584
 H          3.6688239238       -1.7826973227       -1.0236972965
 H          3.3170579805       -0.2165944071        2.2184189130
 H          1.1607453988       -0.1630680848        3.4451374404
 H         -0.8305962936       -1.2610957896        2.4850387568
 H         -1.4785965406       -3.2647600218        0.9433916859
 C         -0.8735525280       -3.3402796161       -1.1051191560
 C         -0.3167587466       -4.7312639650       -1.0757084435
 C         -1.7623179850       -4.5086849901       -1.4024493896
 H         -2.0914457076       -4.6606295163       -2.4195564977
 H         -2.5037997108       -4.7699928681       -0.6615033092
 H          0.3451487393       -5.0415035623       -1.8703569596
 H         -0.0735512105       -5.1513334659       -0.1114734253
 H         -0.6055771588       -2.6979445062       -1.9360929816
