  62
        -98.94041266
 C         -2.6379196186       -1.3107875105       -0.1830472458
 C         -2.3862734128       -0.1318522055       -0.9251792640
 C         -3.5319801534        0.7746329009       -1.0914513412
 C         -4.7228896525        0.4386727471       -0.5629827102
 C         -5.9551453262        1.2939491250       -0.6097619737
 C         -6.0449716582        2.2029425878        0.6239853724
 C         -4.7560811709        2.9695126611        0.9215997076
 H         -4.9464355248        3.6005228575        1.7925417025
 H         -3.9741076708        2.2607529751        1.2049859734
 C         -4.2525264880        3.8391208623       -0.2388500043
 H         -3.9587479970        4.8138189276        0.1563689422
 H         -5.0598128955        4.0084052083       -0.9523568116
 C         -3.0364140714        3.2737226295       -0.9752611123
 H         -2.2559264354        3.0163127446       -0.2537412673
 H         -2.6351540364        4.0593992768       -1.6212201451
 C         -3.3010333952        2.0468118030       -1.8572294332
 H         -4.1363585394        2.2505374353       -2.5302246151
 H         -2.4052975856        1.8743943322       -2.4610698723
 H         -6.8634385112        2.9092290170        0.4740332908
 H         -6.2833937358        1.5851594079        1.4928280135
 H         -5.9404587604        1.8948500004       -1.5167754823
 H         -6.8277867321        0.6391069454       -0.6315819378
 O         -4.9293180743       -0.7117614104        0.1274389447
 C         -3.8932251313       -1.6026609713        0.3513611389
 O         -4.2103134292       -2.6024148070        1.0269392630
 H          1.1231895119       -1.8086547899       -0.5854236883
 C          0.8551213587       -1.4263154859        0.3867816918
 C         -0.4307965106       -1.6038869087        0.8673802518
 C         -0.7512489434       -1.0863850289        2.1204144815
 C          0.1921454952       -0.4077268232        2.8664394395
 C          1.4768116696       -0.2294409229        2.3816220910
 C          1.8057062092       -0.7380749517        1.1335464723
 N          3.1129151050       -0.5875562007        0.6341618939
 S          3.8973020837        0.8888864456        0.8750601583
 O          4.3747640881        0.9345814792        2.2349851220
 O          3.0503469348        1.9872323852        0.4666015699
 C          5.2758623928        0.7096706059       -0.2396501634
 C          5.1753669120        1.2093204612       -1.5242161624
 C          6.2412528433        1.0401415000       -2.3940193953
 C          7.3813345097        0.3754066256       -1.9677279254
 C          7.4671654561       -0.1202270141       -0.6751484010
 C          6.4058175014        0.0466137502        0.2000367053
 H          6.4300494661       -0.3129328208        1.2153494750
 H          8.3561769779       -0.6343212653       -0.3472687503
 H          8.2087728999        0.2452620286       -2.6472585206
 H          6.1781545250        1.4268547705       -3.3984982285
 H          4.2731523246        1.7265477044       -1.8103376215
 H          3.1749393435       -0.8635827107       -0.3368199927
 H          2.2186734849        0.3088469061        2.9488143091
 H         -0.0722687400       -0.0085843972        3.8345927833
 H         -1.7577160955       -1.2175689671        2.4958058664
 C         -1.5157763854       -2.3003223823        0.0818535575
 H         -1.9471392580       -3.0837849183        0.7206692252
 C         -1.0431060508       -2.9308168482       -1.2105018643
 C         -0.3328910613       -4.2499936308       -1.1820911810
 C         -1.7329067409       -4.1633809863       -1.7093829962
 H         -1.8930445561       -4.2694412217       -2.7718428394
 H         -2.5355032949       -4.5617846151       -1.1059212179
 H         -0.1818817260       -4.7135616534       -0.2190431270
 H          0.4683998275       -4.4212801048       -1.8848533781
 H         -0.7389328914       -2.1984590097       -1.9491441757
 O         -1.2672205541        0.1509633002       -1.4288633918
