  62
        -98.93776450
 C         -2.0277620903       -0.9138883256       -0.0080666183
 C         -2.3112752317        0.0527291567        0.9812705964
 C         -2.4513818244        1.4453877038        0.5254652937
 C         -2.2962467457        1.7298806508       -0.7812511966
 C         -2.3041442077        3.0527115770       -1.5190008007
 C         -2.8647943697        4.3125157951       -0.8640039220
 C         -4.3702640037        4.2842356904       -0.6039297712
 H         -4.6383450597        5.1918035718       -0.0588018057
 H         -4.8896324877        4.3061561185       -1.5651015091
 C         -4.8811696561        3.0712228805        0.1692428274
 H         -5.9615280944        3.1841918533        0.2929693230
 H         -4.7167132343        2.1657556772       -0.4183017880
 C         -4.2730330832        2.8772319544        1.5570606492
 H         -4.3840118677        3.7937507819        2.1395751897
 H         -4.8428838003        2.0906461301        2.0586594196
 C         -2.7919189796        2.4582925810        1.5806213630
 H         -2.5901062871        1.9765600870        2.5422052670
 H         -2.1317276111        3.3200473792        1.5075968339
 H         -2.3237299411        4.5313977556        0.0519371756
 H         -2.6638128111        5.1360196564       -1.5547243925
 H         -1.2581934903        3.2376153390       -1.7898032579
 H         -2.8385608126        2.8672064176       -2.4562258798
 O         -2.0320465614        0.7590090076       -1.7038989326
 C         -1.8717835190       -0.5686300013       -1.3490282172
 O         -1.6101437859       -1.3277018001       -2.3021970430
 O         -2.4301193895       -0.2336967616        2.2057883180
 C         -1.7931070225       -2.3526320822        0.4064305097
 C         -0.3906462220       -2.7854337684        0.0479878033
 C         -0.0726381137       -4.0922538417       -0.3005628365
 C          1.2340571977       -4.4382812430       -0.6001789263
 C          2.2447148247       -3.4961087018       -0.5687161413
 C          1.9356662873       -2.1827982941       -0.2271550043
 C          0.6327081932       -1.8477879508        0.0987138629
 H          0.4096869763       -0.8297457121        0.3835216284
 N          2.9290070105       -1.1909298377       -0.2494826040
 S          2.6738219988        0.3279710821        0.4186375976
 O          2.3690026191        0.2229506298        1.8299253594
 O          1.7238303651        1.0480122793       -0.3929251248
 C          4.3014125003        1.0231638108        0.2023817643
 C          4.6439760103        1.5324107251       -1.0359602049
 C          5.9164776476        2.0495095971       -1.2196600080
 C          6.8210835930        2.0481785515       -0.1681229645
 C          6.4627083543        1.5359053165        1.0695938114
 C          5.1915760851        1.0166556147        1.2595365492
 H          4.8642053693        0.6174780551        2.2059859637
 H          7.1665259397        1.5395818925        1.8861588792
 H          7.8104198738        2.4520509854       -0.3138090659
 H          6.1968622369        2.4512906588       -2.1799336920
 H          3.9038155556        1.5197334438       -1.8193150735
 H          3.8648264416       -1.5378958961       -0.0973154601
 H          3.2598358079       -3.7652805368       -0.8157641788
 H          1.4674886072       -5.4578465632       -0.8669212273
 H         -0.8489230299       -4.8389974034       -0.3391943190
 H         -1.8808557014       -2.3593538065        1.5044555849
 C         -2.8598265274       -3.2598013033       -0.1736591221
 C         -3.3479680461       -4.4516411516        0.5930687834
 C         -4.2272296801       -3.2484808196        0.4394663368
 H         -5.0855673274       -3.3117235354       -0.2122404902
 H         -4.3765773227       -2.6093833341        1.2977652251
 H         -3.6067621040       -5.3453607195        0.0454847342
 H         -2.9117797837       -4.6358769442        1.5633553343
 H         -2.7951793482       -3.3329934633       -1.2535068356
