  62
        -98.94386990
 C         -1.5719568800       -1.4341183521       -0.2047563542
 C         -2.7485400086       -0.9587395565        0.4117396255
 C         -3.3290495632        0.2861828931       -0.1260550965
 C         -2.7125591653        0.8942426022       -1.1572000486
 C         -3.0750961253        2.1947575759       -1.8235811141
 C         -2.6671101431        3.4111781827       -0.9788752182
 C         -3.0435020952        3.3202505786        0.4973121424
 H         -2.5453214495        2.4522250667        0.9342705894
 H         -2.6333863089        4.2026120149        0.9966175611
 C         -4.5411635329        3.2656863485        0.7921695967
 H         -4.6561719951        3.3141758461        1.8780849033
 H         -5.0202033198        4.1510129802        0.3681258545
 C         -5.2824753031        2.0226529303        0.2931091901
 H         -5.4994029470        2.0927147582       -0.7694439775
 H         -6.2483693736        1.9932257612        0.8058351071
 C         -4.5865720942        0.7007632739        0.6000249018
 H         -5.3013987786       -0.1154415564        0.4380330116
 H         -4.3446923225        0.6627879642        1.6685648354
 H         -3.1132561066        4.3048418648       -1.4195718461
 H         -1.5792004089        3.5087084271       -1.0299775919
 H         -2.5251086220        2.2282139767       -2.7667545382
 H         -4.1358386022        2.2214247915       -2.0543336610
 O         -1.5856732668        0.3887765336       -1.7329726020
 C         -0.9757048202       -0.7566022429       -1.2665371369
 O          0.0644864191       -1.0769222054       -1.8755418235
 O         -3.2947295652       -1.5434214358        1.3890789664
 C         -0.8961965440       -2.6788107929        0.3378027812
 C          0.5289691924       -2.3707118861        0.7274489626
 C          1.5779530322       -3.2626512363        0.5383938333
 C          2.8693955747       -2.9174402981        0.8983579788
 C          3.1474729131       -1.6706143293        1.4279808029
 C          2.1038392478       -0.7753860736        1.6286635843
 C          0.8071250672       -1.1406128967        1.3094982601
 H          0.0105325903       -0.4302792649        1.4773402471
 N          2.3279695280        0.5268546280        2.1281008150
 S          2.0375713481        1.7722251595        1.0379579713
 O          2.4283207973        2.9805452925        1.7339203661
 O          0.6761849583        1.7151515864        0.5763064496
 C          3.1972505083        1.4488872758       -0.2788552837
 C          2.8865076248        0.5196190459       -1.2510672465
 C          3.8464884714        0.2110035652       -2.2039999392
 C          5.0878067786        0.8264274951       -2.1679864666
 C          5.3819845018        1.7592380986       -1.1844147871
 C          4.4314384287        2.0695041044       -0.2262193548
 H          4.6125618902        2.7884122452        0.5567187202
 H          6.3466397149        2.2399991893       -1.1591331728
 H          5.8287638014        0.5779124359       -2.9114370376
 H          3.6093420499       -0.5146373336       -2.9654468922
 H          1.9123888087        0.0545171740       -1.2678905595
 H          3.2510360021        0.6526361615        2.5224542882
 H          4.1584355922       -1.3884719757        1.6811781247
 H          3.6726364738       -3.6215740892        0.7447990178
 H          1.3839326446       -4.2289158272        0.1020829134
 H         -1.4564062560       -2.9457190382        1.2470197618
 C         -1.0092675640       -3.8171047332       -0.6563686319
 C         -1.1203285732       -5.2347916147       -0.1823214392
 C         -2.3131425036       -4.5463563362       -0.7720846748
 H         -2.6526715553       -4.8443357149       -1.7526816829
 H         -3.1092983624       -4.2396933665       -0.1093706294
 H         -0.6422775840       -6.0108467457       -0.7609243874
 H         -1.1142335326       -5.4084889731        0.8831325990
 H         -0.4621234878       -3.6217172818       -1.5719972368
