  62
        -98.94683678
 C          1.1594670803        1.1429198095       -0.1841697694
 C          2.0285889197        0.8617868790        0.9038035910
 C          2.8534631095       -0.3463736411        0.7888256710
 C          2.7334557199       -1.1178993107       -0.3065095194
 C          3.5692611099       -2.3300779007       -0.5981969494
 C          4.8289803103       -1.9554142207       -1.3921892586
 C          5.6105033502       -0.7835331310       -0.7981818878
 H          6.4931344606       -0.6314134910       -1.4232706573
 H          5.0057164504        0.1231918891       -0.8717290778
 C          6.0458654895       -0.9841242417        0.6602177124
 H          7.0874917995       -0.6718582219        0.7609026730
 H          5.9999228691       -2.0425893817        0.9190174520
 C          5.2387690791       -0.1773819919        1.6790995722
 H          5.2086251094        0.8717411882        1.3742162626
 H          5.7600505086       -0.2233645523        2.6390359725
 C          3.7994373789       -0.6521803717        1.9156881513
 H          3.7985104086       -1.7203209018        2.1418711209
 H          3.4131701185       -0.1150480819        2.7867546413
 H          4.5309632409       -1.6871710403       -2.4083667987
 H          5.4749496502       -2.8335028308       -1.4487378486
 H          2.9752802800       -3.0265236104       -1.1919665900
 H          3.8508089693       -2.8080137611        0.3383791606
 O          1.8592622905       -0.8455405802       -1.3047264297
 C          1.0514802107        0.2798102800       -1.2749738397
 O          0.3055817312        0.3744569205       -2.2711308101
 O          2.1173063493        1.5993665986        1.9208881213
 C          0.3489861605        2.4262576797       -0.0876916993
 C         -1.0597569598        2.1383086797        0.3695244898
 C         -1.5154705304        2.5720439594        1.6088144498
 C         -2.7982426007        2.2720775395        2.0357736090
 C         -3.6486284304        1.5239398099        1.2406388483
 C         -3.1958828298        1.0786761803        0.0059442684
 C         -1.9187767095        1.3959555102       -0.4286632109
 H         -1.5722951091        1.0321694305       -1.3844461208
 N         -4.0325916296        0.2538226607       -0.7854950124
 S         -4.2056259502       -1.2989760195       -0.1792679130
 O         -4.8394863898       -2.0673433490       -1.2258896636
 O         -4.9130735908       -1.2219127998        1.0734932566
 C         -2.5468340404       -1.8966084699        0.1014896476
 C         -1.9539369201       -2.6966011297       -0.8538636724
 C         -0.6596830403       -3.1440113100       -0.6454223019
 C          0.0224843892       -2.7693521705        0.5011316286
 C         -0.5774116511       -1.9451032407        1.4400314886
 C         -1.8772364209       -1.5078107004        1.2449857281
 H         -2.3783111412       -0.8813883006        1.9648438681
 H         -0.0342766115       -1.6374444412        2.3198047890
 H          1.0298921691       -3.1173590707        0.6658794990
 H         -0.1854314500       -3.7760246398       -1.3790678219
 H         -2.5192478097       -2.9647919192       -1.7321612728
 H         -3.7098360791        0.1873128310       -1.7419652422
 H         -4.6393875906        1.2529007900        1.5671064377
 H         -3.1372590211        2.6179447192        3.0004562089
 H         -0.8495559706        3.1334968490        2.2477259903
 H          0.8402478102        3.0159260393        0.6977769211
 C          0.3553392113        3.2359438801       -1.3695956290
 C          0.0410540615        4.6994126502       -1.3060714487
 C          1.4395533916        4.2446321000       -1.5953307381
 H          1.8283970121        4.3675416403       -2.5950663379
 H          2.1838721312        4.3614080596       -0.8210625377
 H         -0.5339752180        5.1377210905       -2.1071857988
 H         -0.1620539189        5.1257730798       -0.3354072686
 H          0.0069144916        2.6835653505       -2.2323971594
