  62
        -98.93735804
 C          2.2785300190        0.6857752308        0.1470418084
 C          3.5438799072        1.0318153351        0.6877573223
 C          4.7172413872        0.5835388516       -0.0693882053
 C          4.5479707854       -0.1181690514       -1.2043620242
 C          5.6420283097       -0.6224968137       -2.1058785318
 C          6.2480725461       -1.9611993545       -1.6628064142
 C          7.1435115184       -1.8918670061       -0.4251475989
 H          7.6696049288       -2.8461005255       -0.3569667317
 H          7.8955360584       -1.1148081126       -0.5652627820
 C          6.3888468473       -1.6497155549        0.8895395919
 H          6.7561033754       -2.3394852133        1.6528224414
 H          5.3279100942       -1.8675538896        0.7457870601
 C          6.5317131068       -0.2352212942        1.4516595818
 H          7.5735714557       -0.0522537847        1.7236559221
 H          5.9289342751       -0.1648616921        2.3606928818
 C          6.0751304170        0.8742767566        0.4951909744
 H          6.0081766397        1.8074999457        1.0597610351
 H          6.8011051511        1.0018120076       -0.3075313123
 H          6.8447054592       -2.3397864732       -2.4959126534
 H          5.4357938232       -2.6701085385       -1.4864219528
 H          6.4293487718        0.1280745914       -2.1812268720
 H          5.1933931791       -0.7573817933       -3.0924056967
 O          3.3191851201       -0.4456423787       -1.6825310263
 C          2.1557797675       -0.0804801556       -1.0131904812
 O          1.1168853958       -0.4982526931       -1.5566815173
 O          3.6851591584        1.6841516896        1.7562502447
 C          1.0460656988        1.1287111868        0.9140283712
 C          0.0751723121       -0.0138386460        1.0683953891
 C          0.4547116673       -1.1175181598        1.8288310384
 C         -0.4029067298       -2.1860942612        2.0011957267
 C         -1.6653168034       -2.1696565429        1.4342547977
 C         -2.0497757650       -1.0778230925        0.6659493730
 C         -1.1811083247       -0.0103310560        0.4856675638
 H         -1.4990012051        0.8125664849       -0.1325210612
 N         -3.3116889012       -1.0409967074        0.0527421066
 S         -4.0989240427        0.4454202936       -0.0718406574
 O         -3.6702800759        1.1132578249       -1.2746524751
 O         -3.9461441154        1.1885903882        1.1594309328
 C         -5.7892667520       -0.0950835236       -0.2563497027
 C         -6.5942201533       -0.1892830104        0.8634860835
 C         -7.8978650865       -0.6364645982        0.7167627098
 C         -8.3714048340       -0.9829753566       -0.5398003135
 C         -7.5521961620       -0.8824875467       -1.6545168509
 C         -6.2481219246       -0.4346111690       -1.5150985918
 H         -5.5783422481       -0.3306849910       -2.3528890267
 H         -7.9244256413       -1.1497924757       -2.6303298125
 H         -9.3861324875       -1.3308165305       -0.6517852472
 H         -8.5382358257       -0.7120446379        1.5807439809
 H         -6.1863129652        0.1005696317        1.8184867760
 H         -3.9298695038       -1.7751959471        0.3688312571
 H         -2.3402928205       -3.0005672094        1.5735492505
 H         -0.0921319724       -3.0355480327        2.5909441079
 H          1.4386532922       -1.1262045927        2.2787759859
 H          1.4267971783        1.3837671615        1.9180876891
 C          0.3914643680        2.3895855094        0.3703857457
 C          1.2046873400        3.4677990456       -0.2789494469
 C          0.2472381871        2.6561547200       -1.0965558820
 H         -0.6661432141        3.1196789271       -1.4415840978
 H          0.6425566147        1.9217698378       -1.7809034943
 H          0.9578973039        4.4968085024       -0.0651644556
 H          2.2622350545        3.2869578671       -0.4054725367
 H         -0.4297316014        2.7195103774        1.0015412858
