  62
        -98.94001148
 C         -2.0985275275       -0.7018372508       -0.1841792108
 C         -3.2770296705       -0.7911546694        0.6006792964
 C         -4.0244035335        0.4552118750        0.7929706274
 C         -3.5524380678        1.6004410343        0.2684669031
 C         -4.1787978027        2.9618822249        0.4057922110
 C         -5.2936591390        3.2422005446       -0.6113764401
 C         -6.6029800508        2.4915131813       -0.3649790620
 H         -6.9218602204        2.6493830285        0.6656908519
 H         -7.3570355833        2.9429667014       -1.0127016963
 C         -6.5353442995        0.9867549306       -0.6607733325
 H         -5.6564416770        0.7755568054       -1.2743378114
 H         -7.4106689032        0.6904394079       -1.2430919190
 C         -6.4956749047        0.0974068515        0.5819208734
 H         -6.4114874170       -0.9423281856        0.2561454946
 H         -7.4300297514        0.2022027008        1.1376194598
 C         -5.3273592061        0.3918846415        1.5318523105
 H         -5.5045864184        1.3231859209        2.0691836970
 H         -5.2586982056       -0.4237231114        2.2555728663
 H         -5.5019515959        4.3141103587       -0.5781897584
 H         -4.9202644657        3.0072742024       -1.6108299678
 H         -4.5672652522        3.0855923431        1.4171277651
 H         -3.3778502515        3.6877678328        0.2491703058
 O         -2.4031991066        1.6527588406       -0.4556065692
 C         -1.6559732563        0.5098351983       -0.7166536272
 O         -0.6548767375        0.7213921785       -1.4274173042
 O         -3.6858173288       -1.8657764675        1.1161152545
 C         -1.2993556543       -1.9793847514       -0.3884308159
 C         -0.1082152161       -1.9528837446        0.5392299817
 C         -0.2517872731       -2.4490693548        1.8325213328
 C          0.8028124279       -2.4111691303        2.7244042312
 C          2.0192439420       -1.8734092959        2.3445060059
 C          2.1731907296       -1.3726236878        1.0565342503
 C          1.1138242003       -1.4159424195        0.1600153628
 H          1.2448829377       -0.9948299148       -0.8231587539
 N          3.4158664823       -0.8561683621        0.6456271108
 S          3.4424691365        0.5340862939       -0.3170776369
 O          2.6106494832        1.5594071698        0.2722034637
 O          3.1747145897        0.1634430694       -1.6823447991
 C          5.1645740141        0.9762150660       -0.1550383706
 C          6.0973517613        0.2810170889       -0.9014466864
 C          7.4393345543        0.5958210527       -0.7594499329
 C          7.8251612548        1.5953210820        0.1215663394
 C          6.8780970108        2.2862893094        0.8620634040
 C          5.5341909125        1.9745770233        0.7259415600
 H          4.7615157097        2.4893958127        1.2742955821
 H          7.1800132079        3.0654346072        1.5432919667
 H          8.8701207956        1.8393416967        0.2296099099
 H          8.1780720497        0.0625892167       -1.3356838689
 H          5.7486264393       -0.4801596735       -1.5795121163
 H          4.0568292887       -0.7514110891        1.4218198741
 H          2.8454529007       -1.8408086271        3.0387715191
 H          0.6767861890       -2.7989125007        3.7239771032
 H         -1.2094302480       -2.8507279860        2.1321142611
 H         -1.9642603549       -2.7864281624       -0.0495691459
 C         -0.9312741891       -2.2380874974       -1.8333406725
 C         -0.5109076777       -3.6191170985       -2.2358353550
 C         -1.8373958048       -3.0806501952       -2.6783357262
 H         -1.9675338267       -2.8132724992       -3.7162952719
 H         -2.7289890698       -3.4762791509       -2.2139549671
 H          0.2743959241       -3.7231557986       -2.9687060198
 H         -0.5030674630       -4.3796691248       -1.4696359367
 H         -0.4427355330       -1.4009151753       -2.3158377703
