  62
        -98.94448446
 C         -2.6690511205       -1.1383256527        0.1478515904
 C         -2.5400481360       -0.2127145557       -0.9162847179
 C         -3.2196372806        1.0783966702       -0.7310734236
 C         -3.9370244674        1.2993657328        0.3846039646
 C         -4.6268138986        2.5877618182        0.7243038500
 C         -3.7106867313        3.5074669364        1.5436623857
 C         -2.3114386695        3.6784518969        0.9509860464
 H         -1.7687170435        4.3750479561        1.5938012173
 H         -1.7785904756        2.7251337855        0.9962666092
 C         -2.2902979474        4.1977712801       -0.4933152682
 H         -1.5255344238        4.9731113858       -0.5740307017
 H         -3.2487170542        4.6583891745       -0.7366944596
 C         -1.9561505033        3.1370788747       -1.5442639998
 H         -1.0430652954        2.6086726451       -1.2525886305
 H         -1.7461080496        3.6485064582       -2.4879878019
 C         -3.0562058227        2.1028435352       -1.8180743257
 H         -4.0006540998        2.6145189893       -2.0139870380
 H         -2.7731048136        1.5468350510       -2.7166719601
 H         -4.1907223280        4.4838141102        1.6305632056
 H         -3.6064343049        3.0883055621        2.5469662853
 H         -4.9307067698        3.0849068704       -0.1946398780
 H         -5.5153729950        2.3566422128        1.3140813519
 O         -4.0762759814        0.3716456160        1.3648046691
 C         -3.4253547789       -0.8463307897        1.2877561519
 O         -3.6040485521       -1.5833917455        2.2774176301
 O         -1.8993131013       -0.4312549332       -1.9797683501
 C         -1.9448000883       -2.4784053631        0.1632183944
 C         -0.4917904972       -2.2007526400        0.4647437121
 C         -0.0126673520       -2.3078231988        1.7663271288
 C          1.2892917435       -1.9525610213        2.0703970939
 C          2.1341544029       -1.4654849449        1.0882433920
 C          1.6606853887       -1.3456017027       -0.2110116448
 C          0.3668685751       -1.7357384837       -0.5208824390
 H          0.0042201222       -1.6149624003       -1.5299989765
 N          2.4989166380       -0.7984907410       -1.2069642647
 S          2.9664804523        0.7961707221       -0.9268659253
 O          1.9986128610        1.4990598616       -0.1155571578
 O          3.2437149828        1.3558147864       -2.2321141295
 C          4.4997732072        0.6221605944       -0.0377809733
 C          4.6469738189        1.2020651581        1.2067152030
 C          5.8520422526        1.0541393591        1.8761957290
 C          6.8821996565        0.3331972623        1.2920319288
 C          6.7187366043       -0.2417096602        0.0402476691
 C          5.5173320209       -0.0965364797       -0.6346253633
 H          5.3483062772       -0.5234305781       -1.6089845277
 H          7.5220845151       -0.8019475911       -0.4102992909
 H          7.8180167509        0.2187343873        1.8158294546
 H          5.9807660568        1.5001648768        2.8493279403
 H          3.8150092939        1.7471681517        1.6234803828
 H          2.0893740130       -0.8623399264       -2.1296066848
 H          3.1433918725       -1.1668758857        1.3215436562
 H          1.6466154055       -2.0440000110        3.0848269735
 H         -0.6817891511       -2.6490906148        2.5435761375
 H         -2.3666973987       -3.0361106444        1.0093563446
 C         -2.1537382483       -3.2879483072       -1.0994463087
 C         -1.8247251907       -4.7496486028       -1.0837920739
 C         -3.2540636629       -4.3035696140       -1.1410483900
 H         -3.7998610014       -4.4323139930       -2.0636845831
 H         -3.8618486344       -4.4188770936       -0.2553772343
 H         -1.3872013577       -5.1889698988       -1.9670549498
 H         -1.4619084568       -5.1682402046       -0.1572576554
 H         -1.9608609867       -2.7354463882       -2.0092868502
