  62
        -98.92997070
 C         -2.4478299022       -1.1628575735        0.1083362874
 C         -2.9222246476       -0.1221359082        0.9436966367
 C         -4.1425303603        0.5853581321        0.5169379694
 C         -4.7232039902        0.2323206116       -0.6436205086
 C         -5.9664351555        0.7905187820       -1.2888547537
 C         -6.1171559535        2.3195043840       -1.2861389752
 C         -7.2167388550        2.8207526941       -0.3483470595
 H         -7.5563375320        3.7979763383       -0.6988261089
 H         -8.0669021146        2.1384708799       -0.4132663456
 C         -6.8028510614        2.9738024808        1.1141876920
 H         -6.1316328581        3.8297774775        1.2121159774
 H         -7.7031971198        3.1996722900        1.6904503159
 C         -6.1194160345        1.7523582977        1.7322543221
 H         -6.6092164757        0.8351314400        1.4070947728
 H         -6.2444244103        1.8130416988        2.8155489418
 C         -4.6132892299        1.6757246859        1.4402335653
 H         -4.2574013814        2.6376870838        1.0601061724
 H         -4.0664433471        1.5015815900        2.3722313378
 H         -5.1649198077        2.7851357547       -1.0369874365
 H         -6.3728489387        2.6302001549       -2.3004400871
 H         -5.9412384373        0.4216909889       -2.3167481134
 H         -6.8378603282        0.3312881467       -0.8154045385
 O         -4.2280888617       -0.7691510377       -1.4229532769
 C         -3.0916632580       -1.4903751280       -1.0849150457
 O         -2.7878070816       -2.3612391763       -1.9189998899
 H          0.9626665836       -1.0655246686        1.9482011837
 C          1.0738515233       -0.8947107807        0.8857455171
 C          0.0434864480       -1.2509330150        0.0284581568
 C          0.1941430819       -1.0077429120       -1.3332545489
 C          1.3523282425       -0.4257654603       -1.8154600571
 C          2.3772759326       -0.0693372947       -0.9559732250
 C          2.2365983279       -0.3045589662        0.4047542658
 N          3.2604762643        0.0744686508        1.2854532194
 S          4.8511817143       -0.2966116424        0.9061726952
 O          4.9373417111       -1.5003721762        0.1129626689
 O          5.5434785224       -0.3120840849        2.1759232285
 C          5.4058001867        1.1046762221       -0.0412568269
 C          6.0103316502        0.9095727982       -1.2675198434
 C          6.4481814677        2.0139051524       -1.9820722874
 C          6.2754298195        3.2864666650       -1.4598491909
 C          5.6682055941        3.4650833833       -0.2256605649
 C          5.2297339674        2.3654395425        0.4943887553
 H          4.7551822198        2.4626511421        1.4565974354
 H          5.5352328394        4.4563554600        0.1768563501
 H          6.6156497512        4.1443423557       -2.0180994802
 H          6.9206069477        1.8772008791       -2.9415581248
 H          6.1178654770       -0.0977870102       -1.6373001148
 H          3.0606554752       -0.1091671654        2.2577776356
 H          3.2800435827        0.3847528539       -1.3303885888
 H          1.4582119176       -0.2452789768       -2.8745225173
 H         -0.6034426595       -1.2849326993       -2.0061514558
 C         -1.2039064395       -1.8952035701        0.5774922640
 H         -1.1930242256       -1.7491936323        1.6696269920
 C         -1.2563598729       -3.3958692684        0.3272854314
 C         -0.4038095302       -4.1064136052       -0.6759016239
 C         -0.1284783820       -4.2725255340        0.7866269688
 H         -0.3620277036       -5.2152496307        1.2577557224
 H          0.7505177932       -3.7860219558        1.1837205997
 H         -0.8515429045       -4.9236163676       -1.2202082768
 H          0.2924157193       -3.5268838121       -1.2610321675
 H         -2.2591140935       -3.7890497012        0.4612956423
 O         -2.3496060097        0.1974337922        2.0216270392
