  62
        -98.93353257
 C          2.4072604112        1.0069629242        0.2341687674
 C          2.7499913687       -0.2795728925        0.7180308650
 C          3.8409036230       -0.9897923061        0.0302803758
 C          4.4471236527       -0.4024517312       -1.0182529180
 C          5.5486921152       -0.8892530000       -1.9365964830
 C          6.3880239090       -2.1104920465       -1.5707661883
 C          7.3046829228       -1.9178329445       -0.3631368514
 H          7.7756007955       -2.8765628313       -0.1353372285
 H          8.0957858568       -1.2150587363       -0.6364216231
 C          6.6304419244       -1.3836196073        0.8980205308
 H          7.3964959320       -1.2899029961        1.6725482623
 H          6.2399337309       -0.3816025293        0.7092087731
 C          5.5082819227       -2.2549889013        1.4589621352
 H          5.2295454428       -1.8457459091        2.4338088001
 H          5.8748927092       -3.2712526493        1.6162532245
 C          4.2304627502       -2.3215784781        0.6042851961
 H          4.3186202879       -3.0672628946       -0.1825025790
 H          3.4046924013       -2.6286244000        1.2530414964
 H          5.7494939054       -2.9777671168       -1.4305742864
 H          7.0227624180       -2.3218121843       -2.4356767493
 H          5.0663384671       -1.0775919530       -2.9021476803
 H          6.2116421926       -0.0312142071       -2.0866126063
 O          4.0674698620        0.8286034466       -1.4648939634
 C          3.0498769291        1.5632822980       -0.8708777194
 O          2.8429066307        2.6599275999       -1.4193703641
 H         -0.8287981178        0.5318845701        2.1267351411
 C         -1.0181008367        0.7480959521        1.0839282262
 C         -0.0350274163        1.3697216066        0.3294984355
 C         -0.2767216617        1.6043665173       -1.0212482314
 C         -1.4844501405        1.2413276353       -1.5877597021
 C         -2.4679114183        0.6300520450       -0.8284060572
 C         -2.2266770002        0.3675832305        0.5127788426
 N         -3.2146093169       -0.2593821161        1.2884100939
 S         -4.0076699482       -1.6002137762        0.6617173880
 O         -4.4724644448       -2.3329742994        1.8189941472
 O         -3.1755822949       -2.3259494245       -0.2693239495
 C         -5.4126456585       -0.9032193940       -0.1825987559
 C         -6.2405414433       -0.0509424210        0.5217103979
 C         -7.3438538926        0.4903419915       -0.1183372609
 C         -7.6016206481        0.1696374524       -1.4429246837
 C         -6.7632616198       -0.6907018375       -2.1350481554
 C         -5.6570453301       -1.2347671294       -1.5008187643
 H         -4.9747410585       -1.9039396782       -2.0009050791
 H         -6.9654010518       -0.9398147879       -3.1644388059
 H         -8.4611221489        0.5922941391       -1.9388521045
 H         -7.9984147567        1.1594837812        0.4165237887
 H         -6.0078387380        0.1703429414        1.5498589195
 H         -2.9390852790       -0.4216971103        2.2464005775
 H         -3.4067076025        0.3391810605       -1.2703680553
 H         -1.6627809434        1.4337384502       -2.6349572885
 H          0.4957209552        2.0668135598       -1.6175448371
 C          1.2859482911        1.7298414599        0.9595914459
 H          1.2925980330        1.3015868512        1.9746769443
 C          1.5135269846        3.2281034306        1.0990121522
 C          0.6446789333        4.2679562334        0.4636279496
 C          0.5775137512        4.0434676550        1.9422970578
 H          0.9904316357        4.7898610706        2.6037282154
 H         -0.2980801460        3.5439695608        2.3296930910
 H         -0.1894465178        3.9436505706       -0.1376608092
 H          1.1278056771        5.1588190517        0.0925093436
 H          2.5683852657        3.4708093971        1.1735200704
 O          2.1630924227       -0.8165642713        1.6974393268
