  62
        -98.92979831
 C         -2.4894511298       -0.8799734003        0.4144418904
 C         -2.6113249097        0.5164814798        0.6203185700
 C         -3.7679943097        1.1899104197        0.0074054097
 C         -4.6377538797        0.4662769095       -0.7217055901
 C         -5.8702126996        0.8764919594       -1.5004964102
 C         -6.5151830396        2.2423148495       -1.2797736307
 C         -7.1517032496        2.4349494699        0.0961470992
 H         -7.4909741995        3.4702537200        0.1729250389
 H         -8.0314838496        1.7902846400        0.1655562294
 C         -6.2525954997        2.1173217202        1.2882688094
 H         -5.9892424097        1.0577135502        1.2772025797
 H         -6.8300345097        2.2957595605        2.1994290493
 C         -4.9722443196        2.9453790702        1.3806551592
 H         -4.5144293197        2.7362298604        2.3512260193
 H         -5.2185566895        4.0084741202        1.3497080889
 C         -3.9151102996        2.6552215598        0.3004783593
 H         -4.1183399495        3.2103611295       -0.6124290009
 H         -2.9444833096        2.9911561298        0.6771941592
 H         -7.3089163595        2.3349404193       -2.0261141107
 H         -5.7995488895        3.0337454894       -1.4825123609
 H         -6.6133979397        0.0949011295       -1.3136217700
 H         -5.5938534796        0.7917037890       -2.5573959302
 O         -4.4691336698       -0.8733666605       -0.9115942697
 C         -3.4096083899       -1.5832396305       -0.3616284194
 O         -3.4256589699       -2.7949601705       -0.6412014191
 O         -1.7796509197        1.1791776699        1.2991136498
 C         -1.2976919399       -1.5609876702        1.0632151306
 C         -0.1253912399       -1.5705424205        0.1155626707
 C         -0.2322873099       -2.1209552609       -1.1580802692
 C          0.8512271702       -2.1083613112       -2.0170087691
 C          2.0567478102       -1.5468465412       -1.6318841592
 C          2.1675141402       -0.9743810708       -0.3720222494
 C          1.0788571202       -0.9957235205        0.4924551906
 H          1.1633817602       -0.5398679602        1.4701026704
 N          3.3916974902       -0.4099875508        0.0459178005
 S          4.1121289603        0.7818262589       -0.9129535299
 O          3.3243626204        1.9959774289       -0.8792377602
 O          4.3800747703        0.2343234685       -2.2174767697
 C          5.6410178903        1.0108871090       -0.0277130899
 C          5.7945357704        2.1000023193        0.8079325798
 C          6.9833556903        2.2463403594        1.5059037698
 C          7.9901738203        1.3043312093        1.3593276601
 C          7.8205317302        0.2157512390        0.5164104105
 C          6.6353975403        0.0643660489       -0.1850587195
 H          6.4621558302       -0.7602068313       -0.8563209493
 H          8.6067458702       -0.5132672910        0.4041375807
 H          8.9138913803        1.4207475794        1.9038648201
 H          7.1188811904        3.0926391596        2.1600217096
 H          4.9879155904        2.8115059193        0.8858847096
 H          3.3189319102       -0.0450887205        0.9877246004
 H          2.8990616202       -1.5237185314       -2.3028468392
 H          0.7578044002       -2.5426724115       -3.0013219990
 H         -1.1727472299       -2.5539652309       -1.4648471591
 H         -1.0312280499       -0.9047113000        1.9071739905
 C         -1.6198827900       -2.9310143900        1.6427833010
 C         -1.0657333601       -4.2152977202        1.1111301714
 C         -0.5715401401       -3.6748702798        2.4170410513
 H         -0.8567538702       -4.1744748795        3.3303210914
 H          0.4217373399       -3.2514545799        2.4342694912
 H         -1.7168545001       -5.0759590001        1.1144554616
 H         -0.4036866000       -4.1763584405        0.2608834314
 H         -2.6322861600       -2.9747049098        2.0312207510
