  62
        -98.94218545
 C          1.6291816909        1.4630214870        0.2747965955
 C          1.3489762799        0.3595392756       -0.5630820549
 C          2.0044911483       -0.9044824999       -0.2086485242
 C          2.7837058498       -0.9637527441        0.8857537857
 C          3.4624478349       -2.1867284923        1.4444945056
 C          4.5515668615       -2.8325876939        0.5664593501
 C          4.0492811942       -3.9721816604       -0.3285951101
 H          4.7941201529       -4.7706118907       -0.3315771867
 H          3.1433693726       -4.3896614499        0.1129382107
 C          3.7824932611       -3.6022037490       -1.7904906586
 H          4.7348907209       -3.5409257483       -2.3218875762
 H          3.2055684191       -4.4130819815       -2.2400531990
 C          3.0444498867       -2.2831964954       -2.0185865445
 H          2.7473602272       -2.2365930532       -3.0679508499
 H          3.7275224439       -1.4469936706       -1.8521055856
 C          1.8052409141       -2.0754525358       -1.1260401423
 H          0.9348626122       -1.8428151415       -1.7428926794
 H          1.5819048778       -2.9735410182       -0.5513111560
 H          5.0391518977       -2.0629532832       -0.0312180601
 H          5.3026754358       -3.2388553189        1.2457971143
 H          3.9094127381       -1.8637851301        2.3873601914
 H          2.6941801915       -2.9276470044        1.6799971952
 O          3.0178697328        0.1202642423        1.6765266538
 C          2.4455001576        1.3497837505        1.3977223869
 O          2.7336827262        2.2512301365        2.2134089537
 H         -0.5116024859        1.2418492664        1.6030994418
 C         -1.1260209527        1.7547065194        0.8770406622
 C         -0.5387162219        2.6152001277       -0.0417717733
 C         -1.3592330271        3.2694699133       -0.9525672914
 C         -2.7247334257        3.0417144556       -0.9577182685
 C         -3.2966894883        2.1430103609       -0.0757924885
 C         -2.4852911655        1.4920249069        0.8459180591
 N         -3.0091563606        0.5476117938        1.7547225295
 S         -2.4723045582       -1.0335835336        1.5939494079
 O         -3.2190491784       -1.7827333124        2.5827363681
 O         -1.0374791600       -1.0848842672        1.7048776350
 C         -3.0128093704       -1.5143612201       -0.0373300005
 C         -2.2948221829       -1.1001648439       -1.1410732719
 C         -2.7737557533       -1.4191248547       -2.4030941201
 C         -3.9515388777       -2.1367507231       -2.5403549677
 C         -4.6608964450       -2.5439215500       -1.4201771933
 C         -4.1918517601       -2.2259361699       -0.1562759703
 H         -4.7069263523       -2.5221177783        0.7434046275
 H         -5.5762092434       -3.1033745404       -1.5276562285
 H         -4.3172352656       -2.3797949014       -3.5255746787
 H         -2.2160963597       -1.0970609030       -3.2679958392
 H         -1.3778199312       -0.5450106087       -1.0156121680
 H         -4.0196655364        0.5448710197        1.7971301457
 H         -4.3575459429        1.9437491634       -0.0981115212
 H         -3.3489270461        3.5566298170       -1.6718128848
 H         -0.9272861190        3.9540649218       -1.6641423419
 C          0.9597618834        2.7980778797        0.0050814124
 H          1.2040308608        3.4424132838        0.8628241554
 C          1.5246798127        3.4230794041       -1.2547381860
 C          1.6198706468        4.9126996917       -1.3876159651
 C          2.8609532355        4.0972216632       -1.1882674296
 H          3.5416333874        3.9775316387       -2.0177235365
 H          3.3492202384        4.1301221297       -0.2247839961
 H          1.4523121150        5.3560201858       -2.3576428289
 H          1.2726084121        5.5127300147       -0.5600775105
 H          1.3016115463        2.8406463401       -2.1413265238
 O          0.5750554699        0.4244706126       -1.5550042980
