  62
        -98.93210766
 C         -2.4622320582        0.7034346592       -0.3201654225
 C         -2.7478096908       -0.6776103373       -0.4601366173
 C         -3.9771175493       -1.1876599640        0.1747721808
 C         -4.7451625502       -0.3284486644        0.8698004928
 C         -6.0550013451       -0.5976056787        1.5610434383
 C         -7.2309354318       -0.7036031053        0.5757109883
 C         -6.9435383637       -1.5148143064       -0.6852294797
 H         -7.8069673554       -1.4143102254       -1.3482507652
 H         -6.0862392839       -1.0806392382       -1.2029282505
 C         -6.6995675132       -3.0050549479       -0.4598896926
 H         -6.5857709092       -3.4676470994       -1.4436707560
 H         -7.5809354292       -3.4441646721        0.0130481365
 C         -5.4711339160       -3.3634178881        0.3786611080
 H         -5.6577615390       -3.1971582111        1.4361560610
 H         -5.2985131634       -4.4371434722        0.2594872682
 C         -4.1814196205       -2.6672509703       -0.0454524139
 H         -3.3391361941       -3.1592254570        0.4561774131
 H         -4.0176735209       -2.8371608282       -1.1156691949
 H         -7.5010820755        0.3083768324        0.2642655475
 H         -8.0848535736       -1.1335798155        1.1018281040
 H         -5.9774999347       -1.4918107259        2.1723471305
 H         -6.2364791302        0.2471871112        2.2291414081
 O         -4.4221178168        0.9881552580        0.9978942496
 C         -3.2936470276        1.5426004577        0.4212246054
 O         -3.1686310649        2.7620483089        0.6479275074
 H          1.0437280650       -0.2583309284       -0.9485566720
 C          1.0379740362        0.4857935362       -0.1632537607
 C         -0.0578001705        1.3272689546       -0.0349184567
 C         -0.0595491590        2.2695108050        0.9880802828
 C          1.0105194627        2.3561043876        1.8600304287
 C          2.0999902747        1.5126121797        1.7321528608
 C          2.1125678706        0.5688925713        0.7141453219
 N          3.2084155920       -0.3035545374        0.5882687985
 S          4.7495005375        0.3673772839        0.7717788145
 O          5.0541153170        0.4296879317        2.1793951184
 O          4.8322847334        1.6181369987        0.0518713089
 C          5.7657080711       -0.8689603051       -0.0118149268
 C          6.1532876317       -1.9765474636        0.7181864282
 C          6.9272146229       -2.9467880854        0.1016593304
 C          7.2981991149       -2.7945975595       -1.2261727513
 C          6.9030517411       -1.6765084205       -1.9452079511
 C          6.1278076704       -0.7029214537       -1.3352700398
 H          5.8068781612        0.1871667849       -1.8524633240
 H          7.1958849890       -1.5592788509       -2.9761769863
 H          7.9018645121       -3.5505509948       -1.7030803664
 H          7.2390503255       -3.8161514598        0.6576621868
 H          5.8501314890       -2.0475289666        1.7496965919
 H          3.1499234217       -0.8743944687       -0.2439157484
 H          2.9418223914        1.5772641803        2.4028676626
 H          0.9973392679        3.0912651319        2.6510273367
 H         -0.9122429812        2.9206476377        1.1028451350
 C         -1.2078096310        1.2141175006       -1.0080911100
 H         -0.9488116477        0.4345469755       -1.7374415115
 C         -1.4175598442        2.5159318498       -1.7560515362
 C         -0.4602655444        2.8851586197       -2.8478147648
 C         -1.8619822853        2.4763944266       -3.1859924879
 H         -2.5525655821        3.2311394147       -3.5308442741
 H         -2.0160794025        1.5060665232       -3.6353074108
 H          0.3378510845        2.1921990872       -3.0679701621
 H         -0.1836913383        3.9220702292       -2.9606231240
 H         -1.8080799798        3.3125162001       -1.1370548287
 O         -2.0068299323       -1.4644997286       -1.1106278308
