  62
        -98.93586028
 C          2.3825924954        0.7064665772        0.2243310084
 C          2.5267796117       -0.7050008765        0.2376940183
 C          3.7645257559       -1.2449661717       -0.3389187789
 C          4.6702789296       -0.3950162250       -0.8556237039
 C          5.9966472922       -0.7970594908       -1.4314295556
 C          7.0950907163       -0.7839522064       -0.3592759611
 C          6.7147326012       -1.5247368470        0.9226118508
 H          7.5745990942       -1.4764144971        1.5941934257
 H          5.8947602709       -0.9936381188        1.4115680057
 C          6.3120645103       -2.9910626209        0.7124057058
 H          6.6660144582       -3.3372252332       -0.2592521597
 H          6.8029378847       -3.6016577358        1.4731164811
 C          4.8102750213       -3.2596075150        0.8283776209
 H          4.4312001665       -2.8315929080        1.7600240654
 H          4.6608672587       -4.3413665710        0.8820385671
 C          3.9465003200       -2.7367113068       -0.3266156881
 H          4.3560921933       -3.0824383507       -1.2781063322
 H          2.9438384492       -3.1591442963       -0.2104940658
 H          7.9972188709       -1.2277589804       -0.7840149775
 H          7.3149880234        0.2545919544       -0.1018777435
 H          5.9102190675       -1.7907290808       -1.8666088364
 H          6.2594162833       -0.0867739890       -2.2170349375
 O          4.4938521152        0.9484145621       -0.8678596798
 C          3.3559320162        1.5404323797       -0.3291316606
 O          3.3558295272        2.7808731004       -0.4165893859
 H         -1.4594826049        0.4459279209        0.9842052203
 C         -1.2508586235        0.9628761269        0.0596415207
 C          0.0274027723        1.4385816938       -0.1956714025
 C          0.2756488686        2.0803441584       -1.4051318560
 C         -0.7362676632        2.2347578486       -2.3347699495
 C         -2.0082997432        1.7547455861       -2.0788912127
 C         -2.2699594526        1.1188161307       -0.8703427601
 N         -3.5688810542        0.6743595791       -0.5721357905
 S         -3.7907983235       -0.7204337456        0.3526160636
 O         -3.5183282771       -0.4097775765        1.7330309021
 O         -3.0539855927       -1.8235643001       -0.2220012838
 C         -5.5431830744       -0.9584789186        0.1259509405
 C         -6.4160734657       -0.1918048133        0.8747945037
 C         -7.7793290888       -0.3489462116        0.6825262647
 C         -8.2447385637       -1.2644246495       -0.2499028095
 C         -7.3568255074       -2.0284782430       -0.9920930304
 C         -5.9917907585       -1.8752235985       -0.8057467246
 H         -5.2644091682       -2.4530894111       -1.3531953825
 H         -7.7215143128       -2.7418695341       -1.7134547990
 H         -9.3063326630       -1.3854560355       -0.3969373083
 H         -8.4728682077        0.2410738794        1.2596253089
 H         -6.0083484621        0.4995919236        1.5935508191
 H         -4.1710891615        0.6674607876       -1.3846051074
 H         -2.7951865602        1.8747788951       -2.8079771110
 H         -0.5307140035        2.7320252771       -3.2708301128
 H          1.2659693675        2.4609881492       -1.6040429661
 C          1.1113643296        1.2641693530        0.8382410046
 H          0.7687615123        0.4802696603        1.5339719109
 C          1.3422455137        2.5259632584        1.6597164794
 C          0.8580603300        3.8806905157        1.2487425440
 C          0.1951136126        3.1655094958        2.3849781436
 H          0.3550574105        3.5243700204        3.3904621218
 H         -0.7888891481        2.7538273833        2.2140722589
 H          1.4963696801        4.7237535413        1.4637096117
 H          0.3212711652        3.9688996552        0.3177353118
 H          2.2923320262        2.4958359702        2.1839226310
 O          1.6567475075       -1.4804443972        0.7218788564
