  62
        -98.93459125
 C          1.7573396179       -0.5841278136       -1.0201726953
 C          2.0459671270       -0.2180936781        0.3158109097
 C          3.4595752006       -0.3138489930        0.7313204001
 C          4.3898842995       -0.7177910724       -0.1526192336
 C          5.8778553185       -0.9524631428        0.0038255301
 C          6.6383631603       -0.3784419186        1.1967090633
 C          6.7157214836        1.1472753943        1.2345234429
 H          7.1985840138        1.4405207467        2.1693222798
 H          7.3518250155        1.4842049381        0.4120260399
 C          5.3812684015        1.8795196415        1.1143607193
 H          5.5836255076        2.9528673268        1.1667814217
 H          4.9428847442        1.6847397457        0.1332708986
 C          4.3515177407        1.5479005660        2.1930057993
 H          3.5217799811        2.2512562339        2.0813937306
 H          4.7911523615        1.7026255516        3.1802335558
 C          3.7614847686        0.1277933797        2.1340462961
 H          4.4061318409       -0.5912253233        2.6337439869
 H          2.8054388639        0.1390370974        2.6652469037
 H          6.2267010661       -0.7603896104        2.1262125864
 H          7.6611179626       -0.7584375742        1.1239671464
 H          6.0103937751       -2.0401828677        0.0013575633
 H          6.3337624791       -0.5852386428       -0.9211218301
 O          4.0631540995       -1.0493037592       -1.4369002766
 C          2.7642953275       -0.9705371002       -1.9056829059
 O          2.6379840700       -1.2589869472       -3.1126705807
 H         -2.0602883382       -0.0743315000       -0.2901306065
 C         -1.5366064386        0.8353322118       -0.5286067815
 C         -0.3053610644        0.7907313596       -1.1610545557
 C          0.3473066682        1.9918583899       -1.4304865577
 C         -0.2086657287        3.1985705770       -1.0564191214
 C         -1.4438196010        3.2380612437       -0.4320455558
 C         -2.1097189144        2.0484264073       -0.1721609791
 N         -3.3641137000        2.0416408192        0.4587853697
 S         -4.5659770599        1.0520676355       -0.1568912293
 O         -4.4428040806        0.8988864799       -1.5884111576
 O         -5.8024915189        1.6398445194        0.3141168252
 C         -4.3384281487       -0.5190799160        0.6482351531
 C         -4.1598250029       -0.5464275166        2.0170225821
 C         -4.0223550422       -1.7720273708        2.6486232553
 C         -4.0725714905       -2.9428210473        1.9071666853
 C         -4.2566306956       -2.8985671365        0.5334770524
 C         -4.3917318524       -1.6755168358       -0.1045181001
 H         -4.5270246115       -1.5936459725       -1.1714248864
 H         -4.2930821817       -3.8097612771       -0.0424908635
 H         -3.9643061050       -3.8955122490        2.4013970619
 H         -3.8755277814       -1.8114952483        3.7159049474
 H         -4.1274353634        0.3825171233        2.5610682059
 H         -3.7231461812        2.9547909239        0.6971461186
 H         -1.8839874136        4.1811937487       -0.1447647591
 H          0.3175590483        4.1193569753       -1.2601636081
 H          1.3084807622        1.9632307144       -1.9270721327
 C          0.3499872801       -0.5013176801       -1.5844548956
 H          0.4850340729       -0.4600458858       -2.6788263429
 C         -0.5056838588       -1.7271731096       -1.2992925580
 C          0.1170152506       -3.0699665545       -1.0634986500
 C         -0.5665494266       -2.3537876620        0.0603076233
 H         -1.5171058682       -2.7310532338        0.4079328516
 H          0.0387738821       -1.9125338977        0.8356355600
 H         -0.3627329217       -3.9369134114       -1.4921274545
 H          1.1959096441       -3.1277357833       -1.0568808948
 H         -1.4257370280       -1.7206879441       -1.8769345584
 O          1.1772572816        0.1670628749        1.1392479906
