  62
        -98.94159210
 C         -2.7100428233       -0.4593864794       -0.4249014810
 C         -1.8331932220        0.3863158413       -1.1481425148
 C         -1.9840386756        1.8285850430       -0.9053228597
 C         -2.9501532213        2.2674833202       -0.0800734239
 C         -3.1823276277        3.7031990034        0.2889046573
 C         -2.4152836713        4.0818150865        1.5633419346
 C         -0.9430825030        3.6679883158        1.5505473687
 H         -0.4974392786        4.0252125528        2.4818710046
 H         -0.8693109626        2.5772432779        1.5657282543
 C         -0.1373872696        4.2074533607        0.3607845466
 H         -0.6606742929        5.0516993548       -0.0907199389
 H          0.8214469470        4.5761260002        0.7310496295
 C          0.1744694410        3.1637555103       -0.7136019698
 H          0.5915117891        2.2730374854       -0.2340433429
 H          0.9423513902        3.5773287124       -1.3736182258
 C         -1.0116737218        2.7446501911       -1.5929487954
 H         -1.5186448490        3.6331260674       -1.9748938501
 H         -0.6181663669        2.1807771224       -2.4436876579
 H         -2.4883197954        5.1622644699        1.7012598655
 H         -2.8973815113        3.5967604045        2.4153688646
 H         -2.8720536755        4.3400133497       -0.5370889092
 H         -4.2503118683        3.8439690391        0.4641444599
 O         -3.8132085202        1.4312269513        0.5512502074
 C         -3.6870390433        0.0591158203        0.4311598542
 O         -4.5052497488       -0.5892543396        1.1141369981
 O         -0.9629011364       -0.0149670023       -1.9665838423
 C         -2.5983208590       -1.9794100856       -0.4498760102
 C         -1.4003075084       -2.3370608818        0.3964066962
 C         -1.5561709076       -2.7447714675        1.7169434713
 C         -0.4544997917       -2.9234949040        2.5359574859
 C          0.8230458207       -2.6746941887        2.0645617854
 C          0.9846249851       -2.2727636685        0.7464415044
 C         -0.1147820165       -2.1379689782       -0.0851548999
 H          0.0255163321       -1.7965604936       -1.0991251097
 N          2.2766003225       -1.9299378364        0.2723446099
 S          2.8184899931       -0.5045401589        1.0207127763
 O          3.4291796907       -0.8703786260        2.2752162226
 O          1.7412530990        0.4565521948        1.1043421803
 C          4.0610090701        0.0534686236       -0.1285817422
 C          3.6542716730        0.7828845055       -1.2299982609
 C          4.6061017107        1.1912578653       -2.1507356757
 C          5.9393247878        0.8608462437       -1.9575048843
 C          6.3307699843        0.1259902252       -0.8484900380
 C          5.3843353081       -0.2848168741        0.0770718470
 H          5.6394013443       -0.8531190972        0.9561863720
 H          7.3681147693       -0.1283283961       -0.7025978844
 H          6.6768850738        1.1798325789       -2.6768988922
 H          4.3028729633        1.7621739556       -3.0136675880
 H          2.6076645381        1.0229400402       -1.3407563217
 H          2.2424026368       -1.7610953466       -0.7266261081
 H          1.6876482869       -2.7533984648        2.7042197724
 H         -0.5938486478       -3.2353486285        3.5603518587
 H         -2.5537706056       -2.8863907642        2.1085709804
 H         -3.4979631931       -2.3561786217        0.0535792241
 C         -2.5452861190       -2.5606026554       -1.8470775373
 C         -2.8047847897       -4.0248223379       -2.0309671502
 C         -3.8150571187       -3.0202846310       -2.4953574703
 H         -3.9370569686       -2.8617226729       -3.5562831448
 H         -4.7304646211       -2.9172048446       -1.9309237565
 H         -2.2328608111       -4.5603266766       -2.7729722370
 H         -3.0347857939       -4.6042581693       -1.1495526847
 H         -1.8084430129       -2.0934684049       -2.4862291374
