  62
        -98.94090844
 C         -2.2868733204       -0.9104192996       -0.2089504478
 C         -3.6011769944       -1.2058688300        0.2271616799
 C         -4.6637605301       -0.3585820691       -0.3245298560
 C         -4.3538939470        0.6113004676       -1.2042133106
 C         -5.3287058005        1.5400085400       -1.8763464590
 C         -5.7009892566        2.7690354053       -1.0356554237
 C         -6.6150861227        2.4877589042        0.1575365405
 H         -6.9676011023        3.4534248025        0.5252060698
 H         -7.4885595144        1.9289830484       -0.1796727654
 C         -5.9358486008        1.7380728126        1.3121290824
 H         -4.8509219494        1.8032522666        1.1998911741
 H         -6.1886417934        2.2210555633        2.2587000149
 C         -6.3339643181        0.2670407026        1.4335609978
 H         -7.3962794972        0.1938308007        1.6762172885
 H         -5.7688442063       -0.1740505192        2.2585690367
 C         -6.0619378857       -0.5669577711        0.1745696672
 H         -6.1684438835       -1.6232500959        0.4328487377
 H         -6.7845659165       -0.3215864328       -0.6031439597
 H         -4.7809907621        3.2442618406       -0.6871392629
 H         -6.2089995053        3.4742661304       -1.6974662304
 H         -4.8464061640        1.8838466915       -2.7939029068
 H         -6.2327637323        0.9918510284       -2.1428117543
 O         -3.0784340971        0.8535299580       -1.6106287357
 C         -2.0127233254        0.1199402994       -1.1078272144
 O         -0.8988553841        0.4758943067       -1.5398697067
 O         -3.8715243974       -2.1309452198        1.0387674482
 C         -1.1327539378       -1.7331222245        0.3358891678
 C         -0.1776168850       -0.8305315327        1.0764194844
 C         -0.6709284684       -0.0710834314        2.1353353446
 C          0.1535371821        0.7901094361        2.8311644698
 C          1.4858991072        0.9185416792        2.4789653116
 C          1.9914752391        0.1589795490        1.4313296157
 C          1.1632188139       -0.7200291413        0.7453087001
 H          1.5771815464       -1.2917862453       -0.0669319867
 N          3.3566905384        0.2436030988        1.0918512500
 S          3.8158035086        0.3769711094       -0.5293729664
 O          3.2807842041        1.5924853172       -1.1036236719
 O          3.5189734395       -0.8535792519       -1.2149993897
 C          5.5811277334        0.5318397652       -0.3197856944
 C          6.3152013296       -0.6097166826       -0.0595215132
 C          7.6827936878       -0.4977139715        0.1333507976
 C          8.2908367123        0.7470884450        0.0637495809
 C          7.5418568640        1.8835358007       -0.2010003505
 C          6.1730798696        1.7781838185       -0.3933919933
 H          5.5519721786        2.6325178407       -0.6102421301
 H          8.0174851175        2.8493748491       -0.2585581567
 H          9.3555642041        0.8315376002        0.2136410967
 H          8.2688791485       -1.3794485428        0.3365353239
 H          5.8005546816       -1.5555356514       -0.0232275129
 H          3.8224449409        0.9736122836        1.6169095475
 H          2.1292798664        1.6015019232        3.0134337159
 H         -0.2436843322        1.3744073725        3.6476967029
 H         -1.7160615943       -0.1632465072        2.3989061311
 H         -1.5859877830       -2.4244921205        1.0620667789
 C         -0.4837413120       -2.5430425228       -0.7651546257
 C          0.2432560905       -3.8105995219       -0.4331439185
 C         -1.0762315981       -3.8668108496       -1.1410338987
 H         -1.0932131288       -4.1455325053       -2.1839930808
 H         -1.9419874808       -4.1971336532       -0.5857124975
 H          1.1377689665       -4.0480100574       -0.9889484946
 H          0.2751049460       -4.1090165140        0.6038026287
 H         -0.0915688888       -1.9254671118       -1.5664802391
