  62
        -98.94491679
 C          1.9711814661        0.8462424382        0.0650490036
 C          2.2415961334       -0.1252813261        1.0559690072
 C          2.2993162903       -1.5172265827        0.5939068489
 C          2.0650909014       -1.7882087932       -0.7033355578
 C          2.1214366659       -3.1577807426       -1.3153570043
 C          3.5263485217       -3.4763500203       -1.8460122207
 C          4.6433224778       -3.1937663680       -0.8414022371
 H          5.5853072597       -3.4817314387       -1.3127744171
 H          4.6902344983       -2.1183002702       -0.6562519923
 C          4.4940707418       -3.9311013131        0.4965829707
 H          3.7960512375       -4.7615617004        0.3859676264
 H          5.4618449603       -4.3538655089        0.7739533897
 C          4.0451945936       -3.0460476355        1.6607914134
 H          4.6854581324       -2.1622848415        1.7176254805
 H          4.1796304757       -3.6087254567        2.5883599645
 C          2.5846142071       -2.5783960413        1.6194478179
 H          1.9237783810       -3.4364519071        1.4768531670
 H          2.3497902655       -2.1264701264        2.5879595635
 H          3.5538951312       -4.5274980615       -2.1385580692
 H          3.7041585004       -2.8694891020       -2.7366777546
 H          1.8256587063       -3.8929480637       -0.5691107866
 H          1.4095416986       -3.1891552920       -2.1420973847
 O          1.7971583679       -0.8297279135       -1.6259601263
 C          1.7253333254        0.5058869357       -1.2654102343
 O          1.4571015842        1.2795594562       -2.2051389111
 H         -0.4248863244        0.9538753184        0.9040703649
 C         -0.6247655565        1.9116581983        0.4444790964
 C          0.4292447517        2.7697184718        0.1567487060
 C          0.1424598594        4.0027270158       -0.4141697719
 C         -1.1639153214        4.3435373766       -0.7212653508
 C         -2.2029685434        3.4636342630       -0.4824298905
 C         -1.9277786603        2.2353229598        0.1090837300
 N         -2.9558130782        1.3162703244        0.3883400379
 S         -2.5944734702       -0.3296026434        0.2512144240
 O         -1.9907199301       -0.7746686209        1.4834481148
 O         -1.8514757636       -0.5885437277       -0.9614673270
 C         -4.2416983368       -1.0027457262        0.1247351422
 C         -4.7427059636       -1.3472625949       -1.1161792345
 C         -6.0351840976       -1.8408642192       -1.2039686042
 C         -6.8013450380       -1.9769739888       -0.0561619952
 C         -6.2845352336       -1.6272664324        1.1827327653
 C         -4.9926732286       -1.1349075002        1.2777483493
 H         -4.5434937758       -0.8592903826        2.2175336342
 H         -6.8819949669       -1.7370825085        2.0732490886
 H         -7.8065838140       -2.3610525252       -0.1274831649
 H         -6.4375863803       -2.1166553231       -2.1653353407
 H         -4.1061591079       -1.2300100425       -1.9787889576
 H         -3.8192632175        1.5427858839       -0.0871604260
 H         -3.2166653511        3.7204789201       -0.7497867756
 H         -1.3726951699        5.3017178217       -1.1724680639
 H          0.9427133788        4.6906102400       -0.6330486064
 C          1.8280813359        2.3004040504        0.4761918014
 H          1.9560184029        2.3108696407        1.5695623800
 C          2.9113729083        3.1509680152       -0.1529015220
 C          3.4145527719        4.3770764084        0.5471739346
 C          4.2771254880        3.1549517932        0.4637157120
 H          5.1370713341        3.1706671830       -0.1888242408
 H          4.4171675639        2.5632865140        1.3567649302
 H          3.6868413498        5.2352462253       -0.0484258156
 H          2.9761335424        4.6216718381        1.5028132730
 H          2.8498326638        3.1635108532       -1.2353826646
 O          2.4225473451        0.1602110123        2.2724368868
