  62
        -98.94198898
 C         -0.6977578491       -1.3602102308        0.5192770203
 C         -1.1211469594       -0.8141395113       -0.7138922399
 C         -2.1205192200        0.2672116881       -0.6398985201
 C         -2.5311720103        0.6948136482        0.5666658297
 C         -3.6144000909        1.6941704176        0.8679156095
 C         -4.9670868505        0.9842271669        1.0554594297
 C         -5.7727419903        0.7786777960       -0.2264369703
 H         -6.1421615609        1.7446358057       -0.5769055005
 H         -6.6424370100        0.1699093756        0.0315914899
 C         -5.0185141399        0.0973380362       -1.3707780201
 H         -5.7580160597       -0.3172312044       -2.0587502200
 H         -4.4365151094       -0.7395549134       -0.9801846299
 C         -4.1000462405        1.0554883965       -2.1433451903
 H         -4.3369228211        2.0810211965       -1.8619529406
 H         -4.3075833905        0.9713916761       -3.2120349503
 C         -2.5971693504        0.7999798175       -1.9630664103
 H         -2.0467668709        1.7198008077       -2.1824451905
 H         -2.2651629399        0.0561753475       -2.6941507701
 H         -5.5770238608        1.5702200167        1.7461728895
 H         -4.7766959699        0.0177454071        1.5295345899
 H         -3.6733000813        2.4501250774        0.0915526593
 H         -3.3465667312        2.1721667680        1.8118616194
 O         -2.0338816900        0.1929897388        1.7324547999
 C         -1.1253153894       -0.8479340207        1.7421815601
 O         -0.7778492391       -1.2224371202        2.8821075902
 O         -0.7044475892       -1.2255274714       -1.8281985598
 C          0.2524893216       -2.5415164402        0.5341823106
 C          1.5159300314       -2.2384756896       -0.2334663195
 C          2.1601482820       -3.1813366095       -1.0248891693
 C          3.3344263018       -2.8580741089       -1.6817733894
 C          3.8917888411       -1.5992878886       -1.5596771097
 C          3.2553812105       -0.6483885888       -0.7684343899
 C          2.0799351907       -0.9750810293       -0.1123620098
 H          1.5941155303       -0.2386139094        0.5115532200
 N          3.7766812397        0.6447102016       -0.6574517503
 S          3.3813373491        1.6789808417        0.5809298595
 O          4.3524159985        2.7473789322        0.4667666992
 O          3.3366983695        1.0098769720        1.8605300996
 C          1.7820834687        2.3271671506        0.1481533793
 C          1.5491353685        2.7015862801       -1.1599112608
 C          0.3380989282        3.2921454593       -1.4813273310
 C         -0.6101591820        3.5073534990       -0.4932386610
 C         -0.3631711017        3.1211156795        0.8143936491
 C          0.8429915386        2.5226864903        1.1402922992
 H          1.0683970888        2.1975806007        2.1446865893
 H         -1.0992987118        3.2864838093        1.5841555991
 H         -1.5462754322        3.9826605484       -0.7400895311
 H          0.1412734580        3.5881504789       -2.4994186610
 H          2.3115984586        2.5280963904       -1.9008065908
 H          4.6932069796        0.7988648820       -1.0477907703
 H          4.8073433909       -1.3482837782       -2.0725816798
 H          3.8240846922       -3.5984601288       -2.2960151092
 H          1.7422321526       -4.1691400797       -1.1289867190
 H          0.5292607617       -2.6975625197        1.5883214706
 C         -0.4690145376       -3.7770165207        0.0307250309
 C         -0.1397669068       -5.1312788104        0.5806103713
 C         -1.4347064472       -4.4700487611        0.9427392311
 H         -2.3506820870       -4.8610673417        0.5256906612
 H         -1.5453187975       -4.0696161509        1.9404691610
 H         -0.1699892663       -5.9805627706       -0.0853966085
 H          0.6255618532       -5.1911499698        1.3398475513
 H         -0.7380720177       -3.6994142712       -1.0166483091
