  62
        -98.93584086
 C         -1.5367480033       -1.3266065213        0.2055245136
 C         -1.6695543283       -0.0060906844        0.7004101232
 C         -2.8069976094        0.7881974270        0.2067829419
 C         -3.6639644116        0.2312374359       -0.6692802918
 C         -4.8785369045        0.7966180290       -1.3754944808
 C         -5.5096818644        2.1079986456       -0.9154017649
 C         -6.1789521386        2.0474992378        0.4572205237
 H         -6.5022445756        3.0556966464        0.7252976077
 H         -7.0717634866        1.4216476133        0.3812883999
 C         -5.3184981006        1.4852516649        1.5860376919
 H         -5.9192352395        1.4925471583        2.4996838201
 H         -5.0700708892        0.4431315087        1.3744528025
 C         -4.0302726405        2.2543516492        1.8723925295
 H         -3.6011722030        1.8462483822        2.7916648795
 H         -4.2620963998        3.3061149720        2.0513874895
 C         -2.9491763575        2.1687961576        0.7809121451
 H         -3.1271346854        2.8972012896       -0.0070007233
 H         -1.9878007315        2.4102277894        1.2445101821
 H         -4.7787838817        2.9104607815       -0.9478469884
 H         -6.2831246587        2.3547369952       -1.6477763523
 H         -4.5870213936        0.9023560668       -2.4262544397
 H         -5.6347941230        0.0058070921       -1.3455059210
 O         -3.4976711174       -1.0456782859       -1.1173156623
 C         -2.4438909778       -1.8541420581       -0.7125622650
 O         -2.4519325328       -2.9814671325       -1.2374485138
 H          2.0943757541       -1.1421262279        1.3578622565
 C          2.0116802871       -1.3739344878        0.3067978076
 C          0.8327043127       -1.8964753998       -0.2022763308
 C          0.7522340208       -2.1696621734       -1.5654145847
 C          1.8357564034       -1.9336531043       -2.3905200320
 C          3.0069693002       -1.3986515867       -1.8810120936
 C          3.0925941715       -1.1104267972       -0.5249283478
 N          4.2632911363       -0.5561108000        0.0231405674
 S          4.1281727907        0.8260548911        0.9644733095
 O          5.4778760954        1.3411167186        1.0428000984
 O          3.4987643892        0.5056717395        2.2183340467
 C          3.1201086047        1.9228189742       -0.0159474909
 C          1.7463944458        1.9164747371        0.1147840230
 C          0.9949832766        2.7198133269       -0.7297246842
 C          1.6205267989        3.5109749204       -1.6796995764
 C          3.0029468709        3.5098212052       -1.7934293161
 C          3.7600485301        2.7042973627       -0.9597482875
 H          4.8367509718        2.6774276527       -1.0092443247
 H          3.4891362980        4.1295381696       -2.5295671579
 H          1.0270900133        4.1322946022       -2.3318566769
 H         -0.0797085083        2.7107257042       -0.6339921156
 H          1.2676506473        1.3015957755        0.8610020201
 H          5.0128733178       -0.4439637907       -0.6452556607
 H          3.8484608448       -1.2048758646       -2.5286549167
 H          1.7647827782       -2.1574712499       -3.4441719810
 H         -0.1682770516       -2.5686837550       -1.9646588272
 C         -0.3464209102       -2.1240552617        0.7085735466
 H         -0.0969566599       -1.6736735848        1.6829677588
 C         -0.6532754183       -3.5937258276        0.9569066508
 C         -0.0206214605       -4.7177182873        0.1976504519
 C          0.3775845940       -4.4609408135        1.6179123567
 H          0.0615008082       -5.1537637972        2.3830410372
 H          1.3498615663       -4.0236437383        1.7927591591
 H          0.6883461482       -4.4801612031       -0.5792879955
 H         -0.6361520081       -5.5763408481       -0.0232871744
 H         -1.6829191867       -3.7471293157        1.2631263727
 O         -0.8601783123        0.4962322878        1.5267467075
