  62
        -98.94361112
 C         -1.4518497694       -1.1861073877        0.0016134956
 C         -2.5065606463       -0.7601837526        0.8365917419
 C         -3.1027490918        0.5558342258        0.5400329642
 C         -2.5966718376        1.2808045634       -0.4754019005
 C         -3.0634354818        2.6205548388       -0.9783732168
 C         -4.3532674594        2.5255751653       -1.8116810388
 C         -5.4176625596        1.5862409875       -1.2495107939
 H         -6.2154418013        1.5055893293       -1.9924796592
 H         -4.9872880856        0.5907491698       -1.1260334320
 C         -6.0498186024        2.0323234701        0.0665369521
 H         -6.5334322965        3.0009815908       -0.0789705062
 H         -6.8276064332        1.3064605922        0.3172662553
 C         -5.0996363737        2.1427824168        1.2600112851
 H         -5.7150467383        2.2552751115        2.1576670944
 H         -4.4887109479        3.0389841526        1.1913263495
 C         -4.2170575915        0.9199003635        1.4920005592
 H         -4.8517409946        0.0290531840        1.5643689581
 H         -3.7424919055        1.0169564296        2.4767881608
 H         -4.0834691935        2.1627012200       -2.8063455476
 H         -4.7691715374        3.5286428796       -1.9194904259
 H         -3.1837807513        3.3058914904       -0.1443595545
 H         -2.2644533160        3.0121839137       -1.6119798777
 O         -1.5669012740        0.8352022422       -1.2480579180
 C         -0.9598719520       -0.3834584206       -1.0256524972
 O         -0.0171188225       -0.6433441695       -1.7995175586
 O         -2.9436363132       -1.4537432279        1.7973426842
 C         -0.7893915502       -2.5255802768        0.2611169005
 C          0.6932723665       -2.3467339388        0.4765701025
 C          1.6436288082       -3.2393308425       -0.0047640556
 C          2.9925112731       -3.0164177749        0.2122042515
 C          3.4236542009       -1.8913700102        0.8908647434
 C          2.4803334688       -0.9981335549        1.3842222540
 C          1.1303079311       -1.2444954393        1.2001631490
 H          0.4131816589       -0.5378604051        1.5924465178
 N          2.8617671838        0.1825756013        2.0592732793
 S          2.5069790298        1.6213168957        1.2704912653
 O          3.0769617496        2.6575766740        2.1058967576
 O          1.0916648899        1.7104831456        1.0212974177
 C          3.4348794107        1.5124139801       -0.2494911687
 C          4.6916188884        2.0868137854       -0.2906093335
 C          5.4620244624        1.9381951653       -1.4318794956
 C          4.9692408248        1.2094753428       -2.5043295698
 C          3.7084452309        0.6369035949       -2.4447994308
 C          2.9279840996        0.7848975632       -1.3074526346
 H          1.9411811339        0.3513464735       -1.2470182854
 H          3.3168788570        0.0692531125       -3.2736758766
 H          5.5695391285        1.0874502050       -3.3921212200
 H          6.4415720540        2.3859345929       -1.4803551037
 H          5.0300468275        2.6458226930        0.5669920143
 H          3.8367045858        0.1943304448        2.3290781360
 H          4.4763901989       -1.7017839130        1.0373658921
 H          3.7178567605       -3.7185758985       -0.1691608327
 H          1.3267851540       -4.1094371299       -0.5562211172
 H         -1.2341475636       -2.8977585916        1.1967346968
 C         -1.1183153650       -3.4964879855       -0.8554181281
 C         -1.2548064933       -4.9628074214       -0.5758304861
 C         -2.4710609363       -4.1407597074       -0.8750218676
 H         -2.9666062073       -4.2729140057       -1.8250971360
 H         -3.1420607690       -3.9017267092       -0.0627329643
 H         -0.9171684412       -5.6638849054       -1.3242110001
 H         -1.1079099068       -5.2945488986        0.4408679973
 H         -0.6960312012       -3.1909506531       -1.8064191270
