  62
        -98.94468923
 C         -1.4588739792       -0.7403448002        0.3019478400
 C         -2.4818373891       -0.7974762303       -0.6767125501
 C         -3.3861767490        0.3607296698       -0.7208156604
 C         -3.1712585290        1.4184610900        0.0804433094
 C         -3.9882115189        2.6810879901        0.1229441190
 C         -5.2412649790        2.5821020904        1.0040291689
 C         -6.3745746190        1.7296213104        0.4317453690
 H         -7.2597633690        1.9234604106        1.0409174689
 H         -6.5997853989        2.0596906102       -0.5828566111
 C         -6.0953620891        0.2200807103        0.4341414393
 H         -5.2692207392        0.0031991404        1.1153977095
 H         -6.9703539092       -0.3115605495        0.8150730794
 C         -5.7711856791       -0.3665525500       -0.9399254705
 H         -5.5529747692       -1.4302232200       -0.8149455903
 H         -6.6432089790       -0.2764152000       -1.5914869406
 C         -4.5701883289        0.2857331898       -1.6371617105
 H         -4.8382155588        1.2783627497       -1.9977083808
 H         -4.2909170489       -0.3350008705       -2.4917746404
 H         -4.9506841891        2.1919094706        1.9823112490
 H         -5.6178310989        3.5971650905        1.1503356087
 H         -3.3407821688        3.4583403601        0.5344182289
 H         -4.2756657087        2.9670784899       -0.8891367811
 O         -2.1354034491        1.4654041601        0.9603916995
 C         -1.2878810192        0.3821722800        1.1175635098
 O         -0.4230615293        0.5395602701        2.0038529498
 O         -2.6544507492       -1.7489876804       -1.4820693299
 C         -0.4617539894       -1.8652344802        0.5353368303
 C          0.6812919007       -1.7663049205       -0.4463464696
 C          0.4893580709       -1.9546768108       -1.8113470795
 C          1.5536358110       -1.8440912811       -2.6867066895
 C          2.8204266709       -1.5313772411       -2.2245080894
 C          3.0218621208       -1.3387794109       -0.8631387894
 C          1.9546628607       -1.4677532206        0.0155209805
 H          2.1267354806       -1.3218509104        1.0711020305
 N          4.2983750808       -1.0325485309       -0.3633723194
 S          4.4877440408        0.1611513394        0.7944619304
 O          5.9070165108        0.4420311992        0.7832170205
 O          3.9395873706       -0.2772793603        2.0515006004
 C          3.5959978510        1.5640405593        0.1489887000
 C          4.2512961212        2.3719831090       -0.7615129801
 C          3.5722625514        3.4371958190       -1.3281455604
 C          2.2487478913        3.6713554592       -0.9848586506
 C          1.6065220912        2.8514728795       -0.0710387405
 C          2.2819078110        1.7863955895        0.5057360598
 H          1.7911478309        1.1475920297        1.2233449099
 H          0.5774986312        3.0234510896        0.2053067894
 H          1.7155421315        4.4979715392       -1.4275086808
 H          4.0725028515        4.0797277288       -2.0346532305
 H          5.2831811312        2.1612042389       -0.9918083899
 H          5.0133827609       -0.9554772411       -1.0725394093
 H          3.6487321510       -1.4402723114       -2.9105794793
 H          1.3942696010       -1.9949105613       -3.7436315994
 H         -0.5017219791       -2.1744841808       -2.1770453796
 H         -0.0483481295       -1.6931443500        1.5390110503
 C         -1.0899473995       -3.2446189101        0.5125818606
 C         -0.3697614997       -4.3745080001        1.1818584909
 C         -1.6270744997       -3.8242846598        1.7845736306
 H         -2.5264107298       -4.4200880297        1.7402942807
 H         -1.5431239297       -3.2279396596        2.6821021805
 H         -0.4035731997       -5.3509277302        0.7236573711
 H          0.5668281303       -4.1506103701        1.6710690509
 H         -1.6317680894       -3.4599940703       -0.3982827894
