  62
        -98.93874994
 C         -2.2178403324        0.2886114893       -0.5800598287
 C         -3.0964517173        0.5228768365        0.5061828741
 C         -3.9820611302       -0.5959313212        0.8583931938
 C         -3.8743676349       -1.7699535915        0.2117929182
 C         -4.6982902611       -3.0024739184        0.4679129241
 C         -6.0526855872       -3.0052796023       -0.2547360115
 C         -7.0993405998       -2.0491512947        0.3189221976
 H         -8.0559279320       -2.3111973200       -0.1376073098
 H         -7.1941989858       -2.2172463778        1.3921309627
 C         -6.8162758169       -0.5642270158        0.0517219552
 H         -6.0838905454       -0.4717563432       -0.7535813061
 H         -7.7310885118       -0.0752486435       -0.2906739973
 C         -6.3147493450        0.2147056240        1.2679181966
 H         -7.0947380393        0.2437424814        2.0319845036
 H         -6.1105405224        1.2421983879        0.9561372824
 C         -5.0351545513       -0.3523039197        1.8968829513
 H         -5.2569612270       -1.2709922556        2.4392937808
 H         -4.6419863755        0.3848284606        2.6012562415
 H         -6.4503716144       -4.0211213910       -0.1970413353
 H         -5.8864014260       -2.7729676900       -1.3092170582
 H         -4.1125544407       -3.8496655989        0.1049322514
 H         -4.8557761144       -3.1228116793        1.5400819410
 O         -2.9575956041       -1.9804473992       -0.7707218011
 C         -2.1275721888       -0.9597115050       -1.1996591629
 O         -1.3556246646       -1.2841570072       -2.1260698054
 O         -3.1571672243        1.6013667074        1.1502455499
 C         -1.2867042795        1.3727501577       -1.1009573247
 C         -0.1497788037        1.5518684967       -0.1234064572
 C         -0.1288441956        2.5462401644        0.8455330046
 C          0.9329981762        2.6361829445        1.7293122557
 C          1.9905650691        1.7478689022        1.6635650139
 C          1.9802152545        0.7507968186        0.6960016564
 C          0.9153377506        0.6614226994       -0.1886656848
 H          0.8967457798       -0.1203740337       -0.9378809885
 N          3.0504526822       -0.1629916654        0.6266861125
 S          4.6028641654        0.5064517516        0.6900814157
 O          4.9490909054        0.7183920592        2.0732376509
 O          4.6735117180        1.6719175605       -0.1626529418
 C          5.5917623376       -0.8146017142        0.0181196106
 C          5.9186246504       -0.7953860558       -1.3245329745
 C          6.6755407466       -1.8332597960       -1.8449059339
 C          7.0876021672       -2.8682306842       -1.0189179878
 C          6.7518714418       -2.8731557929        0.3268684350
 C          5.9963243934       -1.8379703468        0.8540032825
 H          5.7206297021       -1.7942228607        1.8946908143
 H          7.0770501439       -3.6781705451        0.9659352802
 H          7.6772043736       -3.6741796278       -1.4264540744
 H          6.9410443143       -1.8301689024       -2.8898542972
 H          5.5855243356        0.0344009612       -1.9273411410
 H          2.9587068010       -0.7883474809       -0.1627323553
 H          2.8272655378        1.8169470629        2.3400853737
 H          0.9379378496        3.4114550372        2.4808710356
 H         -0.9522336621        3.2369261275        0.9196491155
 H         -0.8614690297        0.9754685049       -2.0328759493
 C         -2.0254651915        2.6552745495       -1.4187701220
 C         -1.3598629634        3.6847976386       -2.2796389947
 C         -2.5112751343        2.8896902453       -2.8161702345
 H         -3.4606406197        3.3849255303       -2.9546790140
 H         -2.3063410530        2.1261252865       -3.5526941695
 H         -1.5163692907        4.7278606589       -2.0515308255
 H         -0.3705839151        3.4601044760       -2.6495626478
 H         -2.6586285285        3.0005179024       -0.6120356903
