  62
        -98.93482140
 C         -1.5309939894        0.5563464183       -0.9670239010
 C         -2.7773429414        1.0252614221       -0.4887392808
 C         -3.8483325369        0.0182439860       -0.3634041581
 C         -3.5959272851       -1.2657991503       -0.6660049168
 C         -4.5384124777       -2.4432097525       -0.6404482093
 C         -5.5006805501       -2.5582663846        0.5496621425
 C         -4.9505592889       -2.0326803384        1.8836374789
 H         -5.0899320889       -2.7969733245        2.6505142163
 H         -3.8783637759       -1.8468393771        1.8000009038
 C         -5.6526745270       -0.7582333519        2.3585293526
 H         -5.4942048736       -0.6497148407        3.4342377030
 H         -6.7272145873       -0.8688562407        2.1965633902
 C         -5.1780664152        0.5357361760        1.6986254867
 H         -4.1675141545        0.7767307749        2.0393738358
 H         -5.8306754910        1.3445738741        2.0361350190
 C         -5.1609266540        0.5258282871        0.1613944631
 H         -5.9991977693       -0.0391646826       -0.2388268343
 H         -5.2434170602        1.5608170786       -0.1812053015
 H         -6.4294788971       -2.0380668593        0.3196425314
 H         -5.7509988751       -3.6157245845        0.6506785738
 H         -5.1177975506       -2.4340836274       -1.5683307134
 H         -3.8919437295       -3.3234019268       -0.6743482402
 O         -2.3702471071       -1.6801316143       -1.0958606325
 C         -1.3204966679       -0.7950044293       -1.2553279974
 O         -0.2647088230       -1.3220711607       -1.6583315534
 H          1.9401528996        0.3165093784       -0.2983151691
 C          1.5417627943        0.9987880540        0.4367601248
 C          0.3655602713        1.6825350132        0.1635853426
 C         -0.1558218096        2.5356735808        1.1303525650
 C          0.5001974269        2.7035007069        2.3360717572
 C          1.6877358674        2.0414609208        2.5944980131
 C          2.2112350112        1.1782975795        1.6386050031
 N          3.3956671178        0.4718251619        1.8825040838
 S          4.4588846439        0.1102489011        0.6446536931
 O          5.7133074122       -0.1472878615        1.3198091441
 O          4.4825511350        1.1492890155       -0.3584159405
 C          3.8487677922       -1.4135094871       -0.0412647505
 C          3.6339807382       -2.4738977216        0.8161929859
 C          3.1734041234       -3.6716299477        0.2949839320
 C          2.9378865958       -3.7881635068       -1.0665338050
 C          3.1625786378       -2.7157007132       -1.9145340250
 C          3.6241547345       -1.5155701953       -1.3990380772
 H          3.8046425657       -0.6546397634       -2.0239643921
 H          2.9715050830       -2.8058178428       -2.9716628050
 H          2.5731179208       -4.7192523659       -1.4707413282
 H          2.9955479429       -4.5093842413        0.9501913487
 H          3.8299834622       -2.3453331827        1.8677973402
 H          3.8700240441        0.7056166102        2.7419659003
 H          2.2039886737        2.1847835727        3.5317012831
 H          0.0870615748        3.3659583968        3.0818946745
 H         -1.0870315507        3.0446845522        0.9372973256
 C         -0.3223638659        1.4586172746       -1.1617227540
 H          0.3704205250        0.8902983403       -1.7974214684
 C         -0.6431860965        2.7649792032       -1.8594897759
 C          0.4859753376        3.5637884579       -2.4353195214
 C         -0.4765732382        2.8615768901       -3.3445785086
 H         -1.1837913304        3.4549711253       -3.9045322199
 H         -0.1328973912        1.9819025964       -3.8695458981
 H          1.4836144608        3.1603920680       -2.3381097552
 H          0.4412863284        4.6402128406       -2.3713278432
 H         -1.4697072729        3.3045533923       -1.4176860057
 O         -3.0179274197        2.2233505450       -0.1865571055
