  62
        -98.94266538
 C         -2.6707747193       -1.2000430170        0.2401798474
 C         -2.7241310852       -0.3433617767       -0.8859726039
 C         -3.7908748190        0.6699224855       -0.8708876496
 C         -4.6467397975        0.7186510957        0.1653963026
 C         -5.7433701357        1.7297986491        0.3292123193
 C         -5.2559933979        2.9569535756        1.1122739838
 C         -3.9377573840        3.5350037868        0.5973969776
 H         -3.7093205733        4.4135649077        1.2045597810
 H         -3.1387444065        2.8098460602        0.7690216162
 C         -3.9535469584        3.9291718050       -0.8861347864
 H         -4.9829877009        4.0265434298       -1.2327947453
 H         -3.4815641250        4.9080921412       -0.9931965958
 C         -3.1983414239        2.9680785299       -1.8062130718
 H         -2.1950219554        2.7928796296       -1.4093448130
 H         -3.0853797689        3.4495943172       -2.7812845417
 C         -3.8668121922        1.6078750590       -2.0428737236
 H         -4.9034185329        1.7555114355       -2.3522871235
 H         -3.3322217805        1.1123115601       -2.8585636228
 H         -6.0324675268        3.7229649787        1.0708904687
 H         -5.1180719778        2.6685625275        2.1568726741
 H         -6.1025192476        2.0311385970       -0.6528833408
 H         -6.5624920183        1.2617654362        0.8777264088
 O         -4.5776681994       -0.1336399118        1.2192914993
 C         -3.5863916427       -1.0952173053        1.2919025044
 O         -3.6275415621       -1.7942333375        2.3238813322
 H          0.2634006928       -1.2757988737       -1.3377827334
 C          0.5625063703       -1.1761246962       -0.3060088267
 C         -0.2788192009       -1.6318695495        0.6978622583
 C          0.1130116727       -1.4624483951        2.0222649585
 C          1.3163691247       -0.8545001078        2.3298784476
 C          2.1503707975       -0.3958862532        1.3251640160
 C          1.7652878022       -0.5532212943        0.0006511059
 N          2.5910197708       -0.0628228469       -1.0249768034
 S          4.2155701468       -0.4755285523       -1.0142681563
 O          4.6489571426       -0.3549113275       -2.3892094825
 O          4.4333890332       -1.7568335222       -0.3830988862
 C          4.9790585812        0.8141378401       -0.0524563399
 C          5.7885026469        0.4873321782        1.0177617899
 C          6.3836700083        1.5071524891        1.7441290181
 C          6.1607296642        2.8284487362        1.3884131326
 C          5.3467013728        3.1398962788        0.3093582924
 C          4.7497854853        2.1252041407       -0.4214762327
 H          4.1125710981        2.3249712140       -1.2668971870
 H          5.1751225915        4.1686785843        0.0362766408
 H          6.6238751646        3.6205606635        1.9553209242
 H          7.0167398709        1.2672166142        2.5832508579
 H          5.9278862933       -0.5539261305        1.2611603923
 H          2.1924476398       -0.1640873099       -1.9471944553
 H          3.0888903911        0.0804453911        1.5577518770
 H          1.6080221375       -0.7340696391        3.3621584954
 H         -0.5435806208       -1.8068444914        2.8090696315
 C         -1.6078124658       -2.2786419508        0.3877511323
 H         -1.9044603737       -2.8671608646        1.2660157735
 C         -1.5511279710       -3.2034574223       -0.8116143162
 C         -0.8091571617       -4.4996651724       -0.6933713815
 C         -2.3055254456       -4.4967524854       -0.7754991509
 H         -2.7734471330       -4.8454912442       -1.6839543795
 H         -2.8665115402       -4.7243949352        0.1192494082
 H         -0.2460716886       -4.8524989541       -1.5440478822
 H         -0.3528678622       -4.7271899935        0.2584121214
 H         -1.5118529749       -2.6842924542       -1.7603085332
 O         -1.9362930287       -0.4087085371       -1.8667519524
