  62
        -98.94069412
 C         -2.4641194698       -1.0982939000       -0.2440707199
 C         -2.1133364897        0.2734783600       -0.2155713601
 C         -3.0767754497        1.1626028502        0.4470114595
 C         -4.1901641599        0.6528425004        1.0034654594
 C         -5.2547969800        1.4292518106        1.7300278190
 C         -6.2982254797        2.0736525005        0.8068380087
 C         -5.8054461795        3.2821412103        0.0097337085
 H         -6.6867464494        3.7634347403       -0.4188016818
 H         -5.3410714296        3.9983356604        0.6883234284
 C         -4.8307629193        2.9382928300       -1.1251643612
 H         -4.8961097593        1.8714053099       -1.3503925910
 H         -5.1222003091        3.4753584998       -2.0305410914
 C         -3.3720579593        3.2937700199       -0.8373735010
 H         -3.2702370993        4.3769874700       -0.7412411212
 H         -2.7663562492        2.9721382997       -1.6882471108
 C         -2.8008442396        2.6359052802        0.4255521192
 H         -1.7159658696        2.7695729201        0.4256181094
 H         -3.2097524198        3.1123480504        1.3163912890
 H         -6.6737984296        1.3120850504        0.1196097288
 H         -7.1324120498        2.3953078707        1.4345434684
 H         -5.7652884201        0.7184801808        2.3834757591
 H         -4.7900146000        2.1972102307        2.3491836089
 O         -4.4737156600       -0.6769052896        0.9840993896
 C         -3.6278961299       -1.5781689398        0.3604756100
 O         -4.0150295100       -2.7630483797        0.4113021102
 H          0.9208803205       -1.0196487505       -1.3956368892
 C          0.8858580603       -1.5535412903       -0.4594888291
 C         -0.2815718099       -2.1907936701       -0.0735281892
 C         -0.3087223202       -2.8495404598        1.1529503109
 C          0.8062151797       -2.8669442497        1.9689714312
 C          1.9698694898       -2.2233194299        1.5835206713
 C          2.0034489801       -1.5573801002        0.3665845811
 N          3.1813889002       -0.9001229304       -0.0413879088
 S          3.9592283001        0.0601160998        1.1116978411
 O          4.7382691698       -0.8001480100        1.9680039615
 O          3.0081849300        0.9191146501        1.7819168108
 C          5.0446519303        1.0162672295        0.0710143012
 C          6.2960009204        0.5153517494       -0.2331482185
 C          7.1251311306        1.2475800691       -1.0680274185
 C          6.6911762108        2.4602633990       -1.5823997488
 C          5.4323160507        2.9501799692       -1.2677796492
 C          4.5975563505        2.2225315794       -0.4342530392
 H          3.6141100005        2.5688479996       -0.1572171895
 H          5.0977883509        3.8940727991       -1.6674307895
 H          7.3381289209        3.0293522088       -2.2312032088
 H          8.1050079606        0.8714402090       -1.3139293282
 H          6.5919577902       -0.4271920006        0.1966967718
 H          3.0264297904       -0.3649144505       -0.8859722389
 H          2.8411687597       -2.2124909598        2.2182836314
 H          0.7703045195       -3.3806415195        2.9182388613
 H         -1.2248151103       -3.3335845697        1.4640024609
 C         -1.5488187497       -2.1262109202       -0.8909413795
 H         -2.0639869498       -3.0914729001       -0.7973509194
 C         -1.3271992394       -1.8304515405       -2.3590764195
 C         -0.7592797893       -2.8954530308       -3.2469963391
 C         -2.1982763592       -2.4985750307       -3.3781762595
 H         -2.5012669990       -1.9327330109       -4.2464193597
 H         -2.9536475394       -3.1818050406       -3.0180481495
 H         -0.0735322191       -2.6055310110       -4.0283562491
 H         -0.5355208494       -3.8505226307       -2.7964432589
 H         -1.0439765393       -0.8028463706       -2.5504185797
 O         -1.0592549395        0.7437127798       -0.7184442900
