  62
        -98.93581681
 C         -0.7313696166       -1.5088623623        0.5872343724
 C         -1.2039727018       -0.7751869005       -0.5262337433
 C         -2.3816007654        0.0920481782       -0.2899286097
 C         -2.8366485261        0.2468054710        0.9647410174
 C         -4.0327477921        1.0309195792        1.4394314990
 C         -5.3429721463        0.7177275644        0.6970644929
 C         -5.8485158970        1.8834644698       -0.1515932386
 H         -6.9218115285        1.7597454285       -0.3121289372
 H         -5.7070910532        2.8116849951        0.4058034755
 C         -5.1854259895        2.0048927279       -1.5216429096
 H         -5.5088103579        1.1729415143       -2.1510180973
 H         -5.5543568238        2.9233535220       -1.9842452935
 C         -3.6541029889        2.0432716707       -1.5147265998
 H         -3.2928654211        2.6216093790       -0.6669958745
 H         -3.3412230833        2.5664773326       -2.4208798833
 C         -2.9868581454        0.6620753529       -1.5451921779
 H         -3.6951293822       -0.0758574941       -1.9381952347
 H         -2.1543195110        0.6784610439       -2.2561779901
 H         -5.2082591133       -0.1660783121        0.0733386001
 H         -6.1052577085        0.4768773656        1.4396397791
 H         -4.1356938423        0.7880897268        2.4992217795
 H         -3.8183368622        2.0995528539        1.3807504845
 O         -2.2153505655       -0.3288581364        2.0366614114
 C         -1.1939886170       -1.2459639029        1.8778754675
 O         -0.7804560025       -1.7416856227        2.9460606817
 H          2.1302064332       -0.7548892157        1.0980869992
 C          2.3208112088       -1.1569970993        0.1132658749
 C          1.4784316051       -2.1344852831       -0.4011404282
 C          1.7495301564       -2.6536687417       -1.6606596611
 C          2.8369693122       -2.1982907925       -2.3837244966
 C          3.6724415291       -1.2229175755       -1.8706727726
 C          3.4108322390       -0.6990272829       -0.6099845246
 N          4.2538420171        0.2742591732       -0.0516015673
 S          3.6271913110        1.4605133015        0.9356497114
 O          4.6172622091        2.5162629617        0.8943119534
 O          3.3389231118        0.9270981981        2.2436084788
 C          2.1314489426        2.0237074299        0.1463731733
 C          2.2158186640        2.5033230641       -1.1457990650
 C          1.0706330500        2.9811064989       -1.7596840461
 C         -0.1315367023        2.9834741986       -1.0702369082
 C         -0.1988827733        2.5015150065        0.2266354865
 C          0.9405139734        2.0083977511        0.8408004533
 H          0.9218014653        1.6116004076        1.8447318195
 H         -1.1328823085        2.4981746189        0.7656183646
 H         -1.0219987751        3.3622546916       -1.5451624319
 H          1.1171796143        3.3521783609       -2.7707537461
 H          3.1696753587        2.5071063392       -1.6476189832
 H          4.9677164755        0.6295506801       -0.6701180279
 H          4.5219457738       -0.8704131026       -2.4352356866
 H          3.0344772947       -2.6048264450       -3.3638681730
 H          1.0950073839       -3.3976096586       -2.0834952970
 C          0.3258941310       -2.5908764228        0.4566305165
 H          0.7127769606       -2.7319379431        1.4796485800
 C         -0.2388786558       -3.9354352806        0.0162647824
 C         -1.6059675289       -4.3732141304        0.4476710766
 C         -1.3389882964       -4.0609556707       -0.9926544684
 H         -1.2981454018       -4.8815515934       -1.6938723804
 H         -1.7472343870       -3.1524763805       -1.4063460534
 H         -2.1945605988       -3.6744059576        1.0248238462
 H         -1.7478528831       -5.4037353591        0.7366087796
 H          0.5272995961       -4.7046210714       -0.0002251277
 O         -0.7010626616       -0.8459807438       -1.6754269968
