  62
        -98.93757465
 C         -1.8345121831       -0.9348348654       -0.2526708503
 C         -2.9647385733       -1.1816832596        0.5677806374
 C         -4.2416936302       -0.6140243868        0.1127545467
 C         -4.2698615661        0.0995366684       -1.0274114973
 C         -5.4705723722        0.8115962616       -1.5823287966
 C         -5.7124924930        2.1210793482       -0.8046852314
 C         -7.0148954954        2.1475215890       -0.0042907127
 H         -6.9716165486        3.0121659158        0.6614740110
 H         -7.8500050079        2.3022893754       -0.6907844312
 C         -7.3156578109        0.8946001837        0.8239212142
 H         -8.1102964316        1.1603571737        1.5243561003
 H         -7.7202720992        0.1151739127        0.1764976918
 C         -6.1363018188        0.3133505300        1.6144618518
 H         -6.5104536837       -0.0227715961        2.5836228122
 H         -5.3892689215        1.0824454623        1.8123659404
 C         -5.4564245265       -0.8994477914        0.9518686142
 H         -5.1012025292       -1.5722725380        1.7378669839
 H         -6.1906368364       -1.4487998125        0.3561415440
 H         -5.7223960003        2.9612872601       -1.5007413887
 H         -4.8667536236        2.2816930418       -0.1324761571
 H         -6.3424699733        0.1639756449       -1.5226154026
 H         -5.2652887749        1.0256536653       -2.6314268266
 O         -3.1650402195        0.3222306001       -1.7834046090
 C         -1.9228961488       -0.1800427786       -1.4218699066
 O         -1.0128455058        0.1102237678       -2.2221746231
 O         -2.9067721589       -1.8536385481        1.6318554374
 C         -0.4985875446       -1.5011055970        0.2011553061
 C          0.3708849387       -0.3712127277        0.6938605520
 C          0.3095036678        0.0176108017        2.0284597961
 C          1.0815813369        1.0653242797        2.4970829217
 C          1.9258678921        1.7527966109        1.6424951357
 C          1.9842267572        1.3788942963        0.3068703514
 C          1.2225151379        0.3161768438       -0.1583291011
 H          1.2660692412        0.0464703537       -1.2018066452
 N          2.8442712555        2.0764954890       -0.5707978894
 S          4.4808678014        1.9098714648       -0.2536949467
 O          4.7938882573        2.6052171463        0.9687749069
 O          5.1629554478        2.3660309030       -1.4432678688
 C          4.7096648984        0.1548207220       -0.0371941060
 C          4.5546118744       -0.3963877106        1.2188394629
 C          4.6421587175       -1.7719625595        1.3600319002
 C          4.8812119064       -2.5675641860        0.2503774543
 C          5.0379851879       -1.9976694826       -1.0038181029
 C          4.9443021403       -0.6235954331       -1.1529188380
 H          5.0617811713       -0.1400744069       -2.1096727833
 H          5.2280200202       -2.6186454887       -1.8647415815
 H          4.9456807455       -3.6383194181        0.3632851935
 H          4.5205379563       -2.2177019922        2.3341372071
 H          4.3752326373        0.2561150651        2.0573248987
 H          2.6644496190        1.8604646170       -1.5415597483
 H          2.5436228722        2.5658900897        1.9884695005
 H          1.0249753178        1.3518103300        3.5363483543
 H         -0.3601159061       -0.5080185490        2.6945076942
 H         -0.7373798083       -2.1415861734        1.0604074345
 C          0.1749297904       -2.3440233208       -0.8626836304
 C          1.3640047889       -3.1736836244       -0.4829754540
 C          0.0585621496       -3.8362530002       -0.8024165915
 H         -0.0310930022       -4.3821350075       -1.7296395031
 H         -0.5123289132       -4.2612602983        0.0099717897
 H          2.1758053827       -3.2637461745       -1.1879118825
 H          1.6807988526       -3.1423058589        0.5483522192
 H          0.1687017414       -1.8882868754       -1.8447296958
