  62
        -98.93953749
 C          2.2789417193        0.8923533404        0.6388381403
 C          3.4263957594        0.8993235705       -0.1920785296
 C          4.4444318094       -0.1200065795        0.1078835604
 C          4.2414373394       -0.9884084796        1.1140081503
 C          5.1661668294       -2.1120654595        1.4808772203
 C          4.7991167896       -3.4021649695        0.7341404501
 C          4.6088226197       -3.2129514694       -0.7709080099
 H          4.3838501398       -4.1938335193       -1.1953929300
 H          3.7335699697       -2.5815877794       -0.9421818799
 C          5.8205486398       -2.6079211892       -1.4935346697
 H          5.9977153999       -3.1719007691       -2.4116687197
 H          6.7112341697       -2.7111580192       -0.8728005196
 C          5.6505591397       -1.1420938192       -1.8962933896
 H          6.4608778398       -0.8817997691       -2.5823381994
 H          4.7096056098       -1.0179445292       -2.4380349896
 C          5.6814414995       -0.1276134093       -0.7464374795
 H          6.5699715295       -0.2920288993       -0.1338624094
 H          5.7464993695        0.8712625007       -1.1871787194
 H          3.8660272995       -3.7892730796        1.1505230700
 H          5.5834793796       -4.1396359895        0.9140901502
 H          6.1893046294       -1.8236561695        1.2476653104
 H          5.0829824293       -2.2881056797        2.5546598203
 O          3.1294673093       -0.9654043797        1.8935371902
 C          2.1314324992       -0.0317920898        1.6782563802
 O          1.1763023692       -0.1169002499        2.4783556900
 H         -1.4404076407        1.0932981301        0.7102799499
 C         -1.1104629706        1.0896000302       -0.3179615101
 C          0.1934762194        1.4506717503       -0.6266690999
 C          0.6022569696        1.4187717805       -1.9560144699
 C         -0.2782561703        1.0255373905       -2.9468456200
 C         -1.5760235303        0.6608871004       -2.6353710202
 C         -1.9971735605        0.6968348903       -1.3108168302
 N         -3.3269640305        0.3799114702       -0.9817106004
 S         -3.6697448006       -0.3764188300        0.4874228095
 O         -3.5878369308        0.5994366799        1.5445368196
 O         -2.8625245105       -1.5673853600        0.6357088395
 C         -5.3773079405       -0.8120176301        0.2134924292
 C         -5.7075979504       -2.1077057101       -0.1349885709
 C         -7.0377205804       -2.4206620801       -0.3689790911
 C         -8.0087504605       -1.4374127702       -0.2543803611
 C         -7.6619401206       -0.1411077802        0.0971218690
 C         -6.3345476206        0.1779360598        0.3340693092
 H         -6.0183293907        1.1676727098        0.6191977094
 H         -8.4198785406        0.6200620697        0.1881461290
 H         -9.0428079604       -1.6835915003       -0.4371042413
 H         -7.3106283003       -3.4281895801       -0.6386132512
 H         -4.9193995704       -2.8402739500       -0.2042519009
 H         -3.8137966504       -0.0766998998       -1.7416481005
 H         -2.2606743602        0.3534102504       -3.4113655903
 H          0.0512658298        0.9981138306       -3.9746231500
 H          1.6181782896        1.6883634906       -2.1996302397
 C          1.1291560893        1.8754783103        0.4805152602
 H          0.5661171492        1.8219947102        1.4229321702
 C          1.5864803292        3.3078662403        0.2803243604
 C          0.6320022991        4.4182280603        0.5953911104
 C          1.8186385290        4.1755965202        1.4783401405
 H          2.6359178190        4.8805310803        1.4527879107
 H          1.6491312789        3.7383026201        2.4520986905
 H         -0.3432443709        4.1453753102        0.9711630603
 H          0.6319600591        5.2925957203       -0.0369672195
 H          2.2516188393        3.4352749605       -0.5629222895
 O          3.6183447894        1.7052724606       -1.1402605895
