  62
        -98.93952047
 C         -2.6462192188       -0.8509068650        0.3513985199
 C         -2.7090380261        0.2732551073        1.2097881874
 C         -3.4568005023        1.4314158340        0.7045142651
 C         -4.0126003090        1.3703226978       -0.5196267014
 C         -4.7611439289        2.4920216904       -1.1783645910
 C         -3.8236519136        3.3685900708       -2.0203992560
 C         -2.5598040028        3.8075475660       -1.2809582175
 H         -1.9441013950        2.9284022210       -1.0762339995
 H         -1.9909869958        4.4458678501       -1.9604089521
 C         -2.8217921048        4.5612519576        0.0305658016
 H         -2.1660085639        5.4334692665        0.0700025779
 H         -3.8488346064        4.9274445769        0.0484151998
 C         -2.5534591261        3.7448030366        1.2961741827
 H         -1.5581865212        3.2968219439        1.2383580028
 H         -2.5553825120        4.4289795391        2.1488228640
 C         -3.5654552109        2.6329929719        1.6011279967
 H         -4.5780525429        3.0405471113        1.5768156502
 H         -3.3653940289        2.2703075915        2.6136472757
 H         -3.5232419099        2.8031207624       -2.9055534734
 H         -4.3785959933        4.2483852332       -2.3511686250
 H         -5.5224044020        2.0599689968       -1.8300157966
 H         -5.2498796059        3.0933748539       -0.4142340126
 O         -3.9130146188        0.2825091550       -1.3243052602
 C         -3.2196545341       -0.8497820635       -0.9207054861
 O         -3.1963523231       -1.7612506343       -1.7679575944
 O         -2.1631464378        0.3067041332        2.3466098209
 C         -1.8887818619       -2.0807621333        0.8233585349
 C         -0.6392404233       -2.2384326866       -0.0084750960
 C         -0.4114120238       -3.3067065051       -0.8641776125
 C          0.7523942827       -3.3651256743       -1.6124934067
 C          1.7088563117       -2.3714871077       -1.5212811685
 C          1.4961522987       -1.3025701327       -0.6588840266
 C          0.3305145189       -1.2466556158        0.0898700936
 H          0.1590371805       -0.4151396450        0.7625980708
 N          2.4597597584       -0.2784970794       -0.5618827879
 S          4.0707009944       -0.7710673365       -0.4077184686
 O          4.5698292588       -1.1148397542       -1.7152705385
 O          4.1781371101       -1.8027198014        0.6000273183
 C          4.8444429356        0.7315005339        0.1556626882
 C          5.0179023353        0.9339984941        1.5117174754
 C          5.6069150245        2.1120683907        1.9432797818
 C          6.0078072386        3.0629637331        1.0167899626
 C          5.8264548868        2.8453650025       -0.3410089255
 C          5.2391253186        1.6692760390       -0.7794348930
 H          5.0873484539        1.4521312404       -1.8238123813
 H          6.1420280190        3.5859800086       -1.0580128968
 H          6.4674367661        3.9779488092        1.3555857070
 H          5.7515866978        2.2827052779        2.9979545173
 H          4.7011622564        0.1631852634        2.1962027502
 H          2.2241304563        0.3873216942        0.1620986226
 H          2.6198491829       -2.4128081299       -2.0961071164
 H          0.9166177453       -4.1985247051       -2.2791155230
 H         -1.1469191370       -4.0885969300       -0.9542648050
 H         -1.5788847280       -1.8511038959        1.8532461372
 C         -2.7759820125       -3.3058550926        0.8468601956
 C         -2.3951925877       -4.4793690116        1.6975733956
 C         -3.5554420625       -3.6154632463        2.0883580546
 H         -4.5538518746       -4.0126154791        1.9834526803
 H         -3.4374362954       -2.9493873404        2.9306442144
 H         -2.5966570581       -5.4727559397        1.3267037581
 H         -1.4863700789       -4.4017432902        2.2751702172
 H         -3.2585918226       -3.4983441328       -0.1038468314
