  62
        -98.93718529
 C         -1.3905060206       -0.8742936493        0.3744096610
 C         -2.4428478508       -0.9789637396       -0.5674772188
 C         -3.4249400804        0.1196812008       -0.5629987696
 C         -3.2450340898        1.1680441214        0.2590025795
 C         -4.1963790993        2.3181454119        0.4288403387
 C         -5.3833054094        1.8873435732        1.3145899392
 C         -6.7332054295        1.8634322831        0.5968925094
 H         -7.4391626496        1.3430278939        1.2478106600
 H         -7.0902119891        2.8886375331        0.4781673886
 C         -6.7469406700        1.2006124319       -0.7841223000
 H         -7.7935875201        1.0203006921       -1.0386715197
 H         -6.3617132198        1.8977157911       -1.5297040706
 C         -5.9770425105       -0.1209234585       -0.9039938190
 H         -6.5506532009       -0.7901342788       -1.5485406283
 H         -5.8971095206       -0.6089301277        0.0677458314
 C         -4.5741623606        0.0093292904       -1.5265653093
 H         -4.3655718910       -0.8923892202       -2.1095476286
 H         -4.5573707703        0.8571969698       -2.2165094300
 H         -5.4635465490        2.5613582439        2.1688990586
 H         -5.1671948897        0.8956062934        1.7178673800
 H         -4.5471574394        2.6544686012       -0.5441995516
 H         -3.6455887389        3.1305595721        0.9031392479
 O         -2.1880667697        1.2632094617        1.1073738793
 C         -1.2563858701        0.2445938614        1.2013237500
 O         -0.3620657699        0.4496765218        2.0471102897
 O         -2.5801926413       -1.9305632303       -1.3804183679
 C         -0.3158218910       -1.9363867595        0.5508293517
 C          0.7875871689       -1.7515515809       -0.4632178986
 C          0.5586547086       -1.9020161019       -1.8271486984
 C          1.5884305285       -1.7185771031       -2.7311355388
 C          2.8565107888       -1.3707207033       -2.2983181192
 C          3.0948032990       -1.2165636322       -0.9380658694
 C          2.0624920491       -1.4169925610       -0.0315981291
 H          2.2630331193       -1.2990912202        1.0223897608
 N          4.3742250192       -0.8778098823       -0.4670876299
 S          4.5509814899        0.2886447586        0.7204438091
 O          5.9576543800        0.6245554280        0.6805929486
 O          4.0544153499       -0.2062130801        1.9779328596
 C          3.5888694404        1.6723917985        0.1377993080
 C          4.1873937106        2.5261288975       -0.7700230728
 C          3.4527779709        3.5769496174       -1.2923688936
 C          2.1311818510        3.7511903982       -0.9083920735
 C          1.5460918508        2.8856687592        0.0017023173
 C          2.2773298105        1.8344904094        0.5342461181
 H          1.8302144803        1.1595592202        1.2472570187
 H          0.5189191009        3.0102336599        0.3087290574
 H          1.5547050013        4.5663685381       -1.3166820041
 H          3.9083702811        4.2544791666       -1.9964025242
 H          5.2197660505        2.3607951569       -1.0330198928
 H          5.0629034292       -0.7503549232       -1.1948992501
 H          3.6577079787       -1.2235377842       -3.0064965995
 H          1.4005824783       -1.8401992039       -3.7871578886
 H         -0.4337378915       -2.1529807618       -2.1684646781
 H          0.1188584392       -1.7558247989        1.5439980215
 C         -0.8524723516       -3.3539488193        0.5209303730
 C         -0.0359732820       -4.4449114791        1.1425233638
 C         -1.3055976317       -3.9916946581        1.7978271136
 H         -2.1642005820       -4.6457270977        1.7710370843
 H         -1.2305122813       -3.4075647873        2.7040873531
 H         -0.0204504124       -5.4127389596        0.6655239546
 H          0.9000203682       -4.1676898591        1.6048575034
 H         -1.4092439419       -3.5881886999       -0.3761168867
