  62
        -98.93621973
 C         -1.2958729849       -1.8200216152       -0.5312539694
 C         -1.4292096426       -0.4587050715       -0.8929698833
 C         -2.7224856869        0.1832632706       -0.5752941127
 C         -3.6979353262       -0.5347788935        0.0098791456
 C         -5.1184561454       -0.1730561050        0.3928417725
 C         -5.5801490077        1.2814826844        0.3952847847
 C         -4.9521525137        2.1448831646        1.4893774068
 H         -5.2482070302        3.1823969108        1.3209003996
 H         -5.3635728809        1.8343199136        2.4531766401
 C         -3.4308899953        2.0699920196        1.5932992044
 H         -3.1296219384        1.0485425119        1.8347241580
 H         -3.1217537965        2.7015610139        2.4304632611
 C         -2.6665997374        2.5349067701        0.3558854221
 H         -1.6048761994        2.5578962870        0.6145799115
 H         -2.9725541545        3.5501939512        0.0974249684
 C         -2.8151324453        1.6485974146       -0.8912377912
 H         -3.7334894068        1.8708517404       -1.4290029509
 H         -1.9777084398        1.8691555429       -1.5596002374
 H         -6.6600406165        1.2655074301        0.5660356715
 H         -5.4237752966        1.7262272753       -0.5829396059
 H         -5.2788190992       -0.6021050926        1.3871821321
 H         -5.7599958009       -0.7394636194       -0.2914474083
 O         -3.5263574349       -1.8534424296        0.3256519961
 C         -2.3378075217       -2.5144790345        0.0860279706
 O         -2.3350327432       -3.7076450639        0.4517737776
 O         -0.5320557295        0.2077323562       -1.4670645467
 C         -0.0265313221       -2.6214828641       -0.7758206873
 C          0.9597876207       -2.3735701642        0.3356025647
 C          1.3453561730       -3.4107124861        1.1776655525
 C          2.2173749093       -3.1803635086        2.2264810433
 C          2.7403201315       -1.9175373804        2.4375179771
 C          2.3633268676       -0.8740059977        1.6001351733
 C          1.4661930852       -1.1009555736        0.5672560733
 H          1.1586842557       -0.2814202156       -0.0630553199
 N          2.8792745536        0.4209175940        1.7775793170
 S          3.5239321529        1.1901637460        0.4276004154
 O          3.9786216433        0.2246376749       -0.5454552824
 O          4.5418916467        2.0691140735        0.9692872842
 C          2.2155333781        2.1966134854       -0.2288804600
 C          1.8616467720        2.0850921295       -1.5567004787
 C          0.8845284182        2.9284686983       -2.0605574588
 C          0.2850027116        3.8623450445       -1.2321610144
 C          0.6527438370        3.9613366276        0.1021406367
 C          1.6295274411        3.1228326583        0.6116264335
 H          1.9484430034        3.1719134284        1.6398195115
 H          0.1801721542        4.6885142713        0.7432818438
 H         -0.4792999042        4.5141306562       -1.6256941043
 H          0.5906091140        2.8431557594       -3.0941963797
 H          2.3427047017        1.3368125306       -2.1653604785
 H          3.5048378168        0.5121347615        2.5658336866
 H          3.4335241658       -1.7371556016        3.2457213895
 H          2.5017824583       -3.9929964398        2.8778609423
 H          0.9407510180       -4.3992750194        1.0147428139
 H         -0.3425916111       -3.6743927708       -0.7064161425
 C          0.5403672066       -2.4184091310       -2.1749611885
 C          1.8780144632       -1.8199071578       -2.4802995205
 C          1.6633026594       -3.2918145115       -2.6529563118
 H          1.6189777638       -3.7008496245       -3.6511979018
 H          2.1195819226       -3.9488301377       -1.9271666162
 H          1.9499018525       -1.2069483735       -3.3670234782
 H          2.5109355043       -1.4807294816       -1.6747576563
 H         -0.2437101543       -2.2089606184       -2.8960631796
