  62
        -98.94850456
 C          1.2510455653        1.5137726919        0.5025798511
 C          2.1714260490        1.1761805650       -0.5186951510
 C          3.2052675131        0.1990074185       -0.1501968632
 C          3.2251497678       -0.3056676178        1.0966119301
 C          4.1959715857       -1.3387712846        1.5890805379
 C          3.6400762679       -2.7584463220        1.4135374861
 C          3.0868592893       -3.0441214446        0.0168957341
 H          2.7736484934       -4.0909901371        0.0030749271
 H          2.1818752716       -2.4512140974       -0.1407930884
 C          4.0797913784       -2.7939098779       -1.1268701617
 H          5.0982556828       -2.7825299006       -0.7359259833
 H          4.0115073219       -3.6254097618       -1.8316990919
 C          3.8276487957       -1.5137647893       -1.9259554964
 H          2.7750701580       -1.4706226123       -2.2194629863
 H          4.4225296824       -1.5627300114       -2.8421800873
 C          4.1846683704       -0.2014634446       -1.2163699146
 H          5.1972016135       -0.2635436564       -0.8124263999
 H          4.1584761525        0.5980810863       -1.9626288071
 H          4.4354046156       -3.4703580840        1.6440477813
 H          2.8301149284       -2.9073632689        2.1316427744
 H          5.1337126063       -1.2353730784        1.0465214226
 H          4.3786587179       -1.1603353654        2.6504075169
 O          2.3280617584        0.0466238929        2.0523200365
 C          1.2996432380        0.9305765682        1.7675277337
 O          0.5044646999        1.1172725873        2.7124904298
 H         -0.4111879826       -0.1169100252       -0.2443925134
 C         -0.9538048241        0.5131282922       -0.9310419871
 C         -0.7820299899        1.8883333293       -0.8784455093
 C         -1.4672066806        2.6738848896       -1.7976713555
 C         -2.2876239296        2.0850663223       -2.7445857535
 C         -2.4605010861        0.7129070503       -2.7866013311
 C         -1.7819335424       -0.0804861057       -1.8689700870
 N         -1.9123980594       -1.4770745959       -1.8673145512
 S         -1.8722832353       -2.3134518021       -0.4202401851
 O         -0.5325769180       -2.3502243419        0.1090491392
 O         -2.4595798048       -3.5974208849       -0.7397789567
 C         -2.9702399578       -1.4053231757        0.6533378152
 C         -2.4819162743       -0.6233034760        1.6793693302
 C         -3.3758291743        0.1089110886        2.4461176156
 C         -4.7337882621        0.0466857324        2.1781160256
 C         -5.2107820732       -0.7521606864        1.1492680420
 C         -4.3227494473       -1.4818128390        0.3774563765
 H         -4.6538292578       -2.1234092068       -0.4229524325
 H         -6.2682055510       -0.8048636036        0.9463897829
 H         -5.4226700809        0.6215149341        2.7767124226
 H         -2.9929509756        0.7262301081        3.2434062728
 H         -1.4216274113       -0.5844013158        1.8759731464
 H         -2.6036821229       -1.8473978345       -2.5021366576
 H         -3.1017121104        0.2584335991       -3.5259097800
 H         -2.8066498920        2.7056093883       -3.4591070096
 H         -1.3521628476        3.7453265722       -1.7771169179
 C          0.1045691221        2.4606048336        0.2033372101
 H         -0.4923818051        2.5165054333        1.1267107418
 C          0.6247606270        3.8457808569       -0.1238526219
 C         -0.1560302752        5.0626063068        0.2700864448
 C          1.1085725429        4.7168356601        0.9953162937
 H          1.9843252218        5.3269064978        0.8329857837
 H          1.0335579940        4.3203667786        1.9978134105
 H         -0.1471725127        5.9166220240       -0.3903697713
 H         -1.0908357219        4.9128513570        0.7889709650
 H          1.1812487040        3.8700971282       -1.0534247340
 O          2.1313979632        1.6616850365       -1.6795700920
