  62
        -98.93392327
 C         -0.7764648399       -1.8596036294       -0.1502768800
 C         -1.1899982498       -0.5805525396       -0.5977323805
 C         -2.4589923099       -0.0875708794       -0.0331661508
 C         -3.0886064100       -0.7887084091        0.9248003293
 C         -4.3376688402       -0.3869726689        1.6639621890
 C         -5.6309606600       -0.3107446691        0.8294448988
 C         -5.9472282100        1.0856092807        0.2797328583
 H         -7.0230606000        1.2563822407        0.3555354881
 H         -5.4662130201        1.8296250309        0.9154451281
 C         -5.5579527298        1.3314605702       -1.1810442517
 H         -5.6012595598        2.4073474502       -1.3629391621
 H         -6.2977159897        0.8589158500       -1.8314610917
 C         -4.1822724897        0.8127299701       -1.6001732014
 H         -3.9535336496        1.2145673498       -2.5893294515
 H         -4.2186048797       -0.2738186799       -1.7108807710
 C         -3.0390744499        1.1621858504       -0.6272670713
 H         -2.2267163898        1.6530631603       -1.1650914014
 H         -3.3911113300        1.8318426007        0.1551268984
 H         -6.4488049201       -0.6105082289        1.4868157488
 H         -5.5856090999       -1.0391095694        0.0201392590
 H         -4.1631230102        0.5762794313        2.1480892887
 H         -4.4643669303       -1.1371656986        2.4471223392
 O         -2.6128201701       -1.9788383889        1.3853623497
 C         -1.4832414900       -2.5558441591        0.8347132701
 O         -1.2050793301       -3.6791761390        1.3017892505
 O         -0.5560439197        0.1307347802       -1.4175415406
 C          0.4563964002       -2.5738132196       -0.6805715096
 C          1.6788716301       -2.2096062993        0.1205378604
 C          2.4906187100       -3.2007114391        0.6606396408
 C          3.6085654999       -2.8677663889        1.4039828309
 C          3.9459793399       -1.5418882088        1.6053799205
 C          3.1394532099       -0.5433309690        1.0712634501
 C          2.0062186200       -0.8794138192        0.3451043200
 H          1.3826007001       -0.0991388394       -0.0630278003
 N          3.4449608899        0.8106469811        1.2702449497
 S          3.2396659601        1.8909737307        0.0057536893
 O          3.4552926802        1.2539215503       -1.2714323104
 O          4.1428760100        2.9813128208        0.3195268191
 C          1.5788349700        2.5050971907        0.1632364489
 C          1.0120033498        2.6005633711        1.4178754088
 C         -0.2391460902        3.1823649211        1.5430871084
 C         -0.8899710400        3.6700454608        0.4210417582
 C         -0.3076400198        3.5627384104       -0.8319595617
 C          0.9381081502        2.9721428904       -0.9657492413
 H          1.4183661703        2.8541946901       -1.9237544812
 H         -0.8193244297        3.9338380601       -1.7057432819
 H         -1.8593502700        4.1323975908        0.5212849279
 H         -0.6996124603        3.2563322314        2.5154441684
 H          1.5473024897        2.2150588714        2.2700619490
 H          4.3034776498        0.9865122013        1.7719815198
 H          4.8238849698       -1.2775408386        2.1753380906
 H          4.2279293099       -3.6464276987        1.8225977212
 H          2.2302313500       -4.2375853192        0.5058756911
 H          0.2619952302       -3.6451026695       -0.5087241293
 C          0.6522107804       -2.3964421600       -2.1798178997
 C          1.6888104005       -1.5138161102       -2.7998341298
 C          1.8471140405       -3.0020771402       -2.8559518893
 H          1.7099848106       -3.5045281005       -3.8017206892
 H          2.6019646504       -3.4465102000       -2.2244036991
 H          1.4127123006       -0.9884181905       -3.7019884800
 H          2.3452801504       -0.9403783000       -2.1636806399
 H         -0.2913504995       -2.4650211302       -2.7132843198
