  62
        -98.93754572
 C          1.8060398403        1.1656877097        0.2649343890
 C          2.3751322305        0.1505162999        1.0727248990
 C          3.7785603904       -0.2103893901        0.8063662687
 C          4.4446908202        0.4212357797       -0.1781236416
 C          5.8789410700        0.3046248096       -0.6508881819
 C          6.7597673102       -0.8552953603       -0.1952320519
 C          6.3469188100       -2.2218022804       -0.7416597715
 H          6.5561855698       -2.2438346707       -1.8141188415
 H          6.9682825302       -2.9835705203       -0.2659549315
 C          4.8773945901       -2.5907298204       -0.5537996110
 H          4.7185394200       -3.5740929305       -1.0048620008
 H          4.2477855899       -1.8834981205       -1.0978554510
 C          4.4011636905       -2.6643288701        0.8955797091
 H          3.3893398005       -3.0798186401        0.8894382095
 H          5.0390110206       -3.3489583500        1.4582907491
 C          4.3445415407       -1.3213540399        1.6433662788
 H          3.6677196909       -1.4389102697        2.4949294590
 H          5.3202262108       -1.0478839098        2.0380875585
 H          7.7675721501       -0.6445484404       -0.5631500122
 H          6.8197256905       -0.8790065501        0.8888431681
 H          6.3626299901        1.2427601597       -0.3572268623
 H          5.8337894797        0.3119357793       -1.7445702919
 O          3.8547192499        1.3938902695       -0.9302580716
 C          2.5384670200        1.7871199995       -0.7450412114
 O          2.1715538598        2.6831335793       -1.5274504215
 O          1.7403367707       -0.4248395599        1.9980374893
 C          0.3572778203        1.5446745998        0.5262189593
 C         -0.5218966200        0.9736194895       -0.5601396304
 C         -0.7361197203        1.6297620192       -1.7678375105
 C         -1.5219782305        1.0513428290       -2.7477231701
 C         -2.1282507305       -0.1745508610       -2.5371004997
 C         -1.9216719201       -0.8383284807       -1.3341439496
 C         -1.1175610699       -0.2651167605       -0.3592814400
 H         -0.9503252296       -0.8011942903        0.5637472901
 N         -2.5346215200       -2.0809723006       -1.0811006192
 S         -3.4447939897       -2.2236599703        0.3185362211
 O         -2.5843156294       -2.2967039701        1.4703829009
 O         -4.3012509497       -3.3659110604        0.0852826016
 C         -4.4147416697       -0.7272257904        0.3536133110
 C         -5.5482601399       -0.6662155205       -0.4335106287
 C         -6.2692561099        0.5155285594       -0.4819136488
 C         -5.8401461398        1.6144224696        0.2467068809
 C         -4.7015196695        1.5368013598        1.0334446906
 C         -3.9779308795        0.3558614198        1.0891032007
 H         -3.0895206094        0.2535239000        1.6913776805
 H         -4.3723226994        2.3927520299        1.6009968903
 H         -6.3966789198        2.5372550696        0.2046252408
 H         -7.1584925101        0.5775774393       -1.0882122085
 H         -5.8512478300       -1.5465943707       -0.9769103584
 H         -3.0552036102       -2.4437530008       -1.8675902690
 H         -2.7493139707       -0.6198214311       -3.2996250194
 H         -1.6720972408        1.5663811988       -3.6843009402
 H         -0.2561579503        2.5775931992       -1.9473560408
 H          0.0977793006        1.0355309100        1.4647126594
 C          0.1648250503        3.0351781598        0.7168427990
 C         -1.0914230695        3.5227346799        1.3717266092
 C          0.2148681607        3.6055597901        2.1011608688
 H          0.6691925407        4.5748610101        2.2417724685
 H          0.3893961709        2.9206132003        2.9184707989
 H         -1.5402938196        4.4359184298        1.0132562291
 H         -1.8007168294        2.7754106600        1.6935434196
 H          0.5899422701        3.6337125396       -0.0779902313
