  62
        -98.94432913
 C          1.6083423084        1.3770558268        0.5442052437
 C          1.6059861641        0.0666118464        1.0876798616
 C          2.7418083565       -0.7850225062        0.7205348229
 C          3.7107641331       -0.2968665461       -0.0750072631
 C          4.9511956323       -1.0285373254       -0.5112871080
 C          4.7493803990       -1.9163744303       -1.7467237182
 C          3.9387025016       -3.1898616206       -1.5039910410
 H          4.3657147749       -3.7351473626       -0.6618086821
 H          4.0542530682       -3.8165851756       -2.3905035500
 C          2.4422298387       -2.9492865814       -1.2597031802
 H          1.8585524339       -3.6536566847       -1.8562246506
 H          2.1736204722       -1.9461219246       -1.5995404927
 C          2.0004215006       -3.1141556259        0.1944029921
 H          2.1389896524       -4.1525635575        0.5022996676
 H          0.9349525203       -2.8802984464        0.2540613009
 C          2.7368862976       -2.2082285150        1.1898311521
 H          3.7558271911       -2.5628452285        1.3434635071
 H          2.2041269444       -2.2421750290        2.1429387478
 H          5.7398169294       -2.2034145981       -2.1076219164
 H          4.2702665599       -1.3222361159       -2.5284877483
 H          5.3303776385       -1.6316141409        0.3140648754
 H          5.6932387610       -0.2647828516       -0.7539275432
 O          3.6780386939        0.9660736554       -0.5746461364
 C          2.6124860868        1.8190363352       -0.3173619723
 O          2.6984498952        2.9168341392       -0.8996886668
 O          0.7009448965       -0.3667073139        1.8485748637
 C          0.4215634838        2.2714109800        0.8656996179
 C         -0.5005122718        2.2637977969       -0.3289014371
 C         -0.4919252822        3.2548209625       -1.3026101721
 C         -1.3278643031        3.1576265245       -2.4010827385
 C         -2.1974022720        2.0906013080       -2.5385704239
 C         -2.2130130291        1.0935525475       -1.5693588275
 C         -1.3588799653        1.1815688470       -0.4819271962
 H         -1.3581807429        0.3980409940        0.2613224411
 N         -3.0760078620       -0.0079843687       -1.6759989073
 S         -3.8918772043       -0.5407990555       -0.3104177917
 O         -5.0741336799       -1.1944482059       -0.8334781676
 O         -4.1255128215        0.5415078230        0.6170799914
 C         -2.8383980587       -1.7770085449        0.4136738117
 C         -2.4442235199       -1.6583397368        1.7305076370
 C         -1.6606754450       -2.6552852776        2.2888205010
 C         -1.2922501635       -3.7500443684        1.5239833602
 C         -1.6978449860       -3.8558457062        0.2012239496
 C         -2.4787266286       -2.8611266383       -0.3628441400
 H         -2.8175693588       -2.9082054828       -1.3845424980
 H         -1.4029423580       -4.7081616296       -0.3898101941
 H         -0.6802696441       -4.5238348481        1.9603057833
 H         -1.3343133382       -2.5658681938        3.3120856268
 H         -2.7476847564       -0.7879287113        2.2905609923
 H         -3.6857329161        0.0122441024       -2.4808267323
 H         -2.8579272563        2.0251761995       -3.3902468675
 H         -1.3092415261        3.9294093418       -3.1559527449
 H          0.1848746827        4.0881547768       -1.2091906069
 H         -0.1035566463        1.7683001371        1.6896709956
 C          0.8202062785        3.6571064036        1.3235873016
 C         -0.2084737966        4.5244201732        1.9836013569
 C          0.9121068684        3.9436965407        2.7912056306
 H          1.6934030319        4.6030662602        3.1384270530
 H          0.6844944048        3.1388704887        3.4748787240
 H         -0.2000218756        5.5838689335        1.7781590022
 H         -1.1974437246        4.1102306638        2.1141531802
 H          1.5493679293        4.1341066491        0.6813558640
