  62
        -98.93680992
 C          2.4641101092        0.8015103305        0.4727113309
 C          2.5938813093       -0.3425741792       -0.3472678794
 C          3.7899186892       -1.1742107994       -0.1181078996
 C          4.6550042691       -0.8247461397        0.8498164906
 C          5.9522356591       -1.4976918899        1.2038275606
 C          7.1267659392       -0.8288450897        0.4696332209
 C          7.4094234793       -1.3781233493       -0.9282073693
 H          8.1654363193       -0.7340311492       -1.3833009190
 H          7.8410270592       -2.3773698293       -0.8402027895
 C          6.1981881494       -1.4497550189       -1.8619644394
 H          5.6058591294       -0.5377922789       -1.7675596292
 H          6.5692906895       -1.4886614986       -2.8880365194
 C          5.3117141493       -2.6782783590       -1.6081492899
 H          5.8475113992       -3.3756267392       -0.9643511001
 H          5.1387507293       -3.1993737687       -2.5520113601
 C          3.9292670592       -2.3794164291       -1.0074915399
 H          3.2095711393       -2.2103133088       -1.8146255099
 H          3.5801398991       -3.2605066592       -0.4590699102
 H          6.9171199492        0.2422666803        0.4093708312
 H          8.0307082891       -0.9507919599        1.0698214209
 H          6.0912759790       -1.3611553502        2.2782933706
 H          5.9070852290       -2.5609302998        0.9880932102
 O          4.4755943191        0.2734805001        1.6352604610
 C          3.3919789492        1.1137421302        1.4654348611
 O          3.3611202591        2.0850574199        2.2484397914
 H         -0.9701591405        1.6459394112       -1.3062823691
 C         -1.0669787907        1.0644692610       -0.4025175393
 C         -0.0134204508        0.9981722906        0.4947342708
 C         -0.1778364809        0.2466844303        1.6556261705
 C         -1.3571004510       -0.4293980998        1.9000390802
 C         -2.4023881909       -0.3703736994        0.9942760201
 C         -2.2542174807        0.3834963509       -0.1605348797
 N         -3.3125829006        0.4473117813       -1.0832672697
 S         -4.8335042607        0.8769138112       -0.5173433398
 O         -5.5190353805        1.4332147516       -1.6634501297
 O         -4.7412706707        1.7239346908        0.6493193605
 C         -5.5928821508       -0.6746891789       -0.0866580003
 C         -6.0734198209       -0.8722297093        1.1929657196
 C         -6.6736107210       -2.0824146294        1.5042038491
 C         -6.7828124709       -3.0677427591        0.5349580088
 C         -6.2970705208       -2.8526502087       -0.7463368111
 C         -5.6970911607       -1.6447330586       -1.0642125006
 H         -5.3114163606       -1.4371010683       -2.0483607505
 H         -6.3838989808       -3.6215942784       -1.4970504613
 H         -7.2496137410       -4.0088551791        0.7794679484
 H         -7.0523082811       -2.2512578297        2.4995237990
 H         -5.9624407309       -0.0789447196        1.9150708798
 H         -3.0877484605        0.9550380015       -1.9267714496
 H         -3.3239441409       -0.8984920494        1.1769054998
 H         -1.4650661811       -1.0101100200        2.8036904400
 H          0.6376258990        0.2017910800        2.3652727406
 C          1.2851916793        1.7391315806        0.2871174511
 H          1.3702978193        2.4930717604        1.0837926114
 C          1.3864460995        2.4372401110       -1.0532646086
 C          0.7778292295        3.7928888211       -1.2465862283
 C          2.2672165995        3.6428083110       -1.1746367982
 H          2.8436158396        3.7723913713       -2.0783459481
 H          2.7744404895        3.9777847507       -0.2813854080
 H          0.2712669395        4.2388180909       -0.4036772682
 H          0.3340350297        4.0300962315       -2.2021335882
 H          1.3721241195        1.7438491013       -1.8865907489
 O          1.7592362493       -0.6528622389       -1.2374008896
