  62
        -98.93758765
 C         -2.2625396430        0.6989063356        0.1592252941
 C         -3.5752018064        1.1799727365        0.4007969049
 C         -4.6610175674        0.4931226766       -0.3102932527
 C         -4.3577553407       -0.4952036127       -1.1708735680
 C         -5.3641466922       -1.3236659260       -1.9144246874
 C         -5.7425414410       -2.5800946991       -1.1174841793
 C         -6.1113020039       -2.3000573968        0.3395714696
 H         -6.3890803956       -3.2537323025        0.7936028212
 H         -5.2254276121       -1.9404284379        0.8685294659
 C         -7.2555408020       -1.2931503071        0.5229444964
 H         -7.8125123680       -1.1923873742       -0.4091676914
 H         -7.9466022833       -1.6820485496        1.2736782498
 C         -6.8124860221        0.0912032398        1.0001349792
 H         -6.1772281717       -0.0116447425        1.8837357550
 H         -7.7034471849        0.6482031063        1.3016924755
 C         -6.0670362861        0.9455442241       -0.0329132797
 H         -6.6457295913        0.9931669852       -0.9574279103
 H         -5.9806339772        1.9578295837        0.3726067023
 H         -6.5799807077       -3.0681899665       -1.6192735049
 H         -4.8922465643       -3.2661280681       -1.1292718824
 H         -6.2503804188       -0.7225098503       -2.1080244891
 H         -4.9246243644       -1.6261403514       -2.8663158897
 O         -3.0837345592       -0.8846559436       -1.4286088780
 C         -2.0026547401       -0.3082342241       -0.7710881030
 O         -0.9008121421       -0.7743426463       -1.1170234604
 H          1.4851951375        0.4379072301        0.9737232628
 C          1.2888242205        1.1182400036        0.1632276965
 C          0.0257492240        1.6607732925       -0.0118363244
 C         -0.1906813437        2.5182828643       -1.0875831941
 C          0.8262390663        2.8046414958       -1.9765670689
 C          2.0819312316        2.2491057340       -1.8071188544
 C          2.3136944261        1.4045490090       -0.7276282784
 N          3.6019856780        0.8838358795       -0.5131939370
 S          3.8575521702       -0.5823930041        0.2753950066
 O          3.2256288552       -1.6742631291       -0.4304954160
 O          3.5183826953       -0.4323224061        1.6682347940
 C          5.6305740016       -0.6904972055        0.1049422674
 C          6.4203827347        0.0865613967        0.9313221111
 C          7.7975487141        0.0304418481        0.7890524610
 C          8.3598941537       -0.7974080565       -0.1714809594
 C          7.5551187996       -1.5734383150       -0.9916997888
 C          6.1765698187       -1.5204580749       -0.8554126259
 H          5.5113525148       -2.1108909013       -1.4650703251
 H          7.9946493292       -2.2186927962       -1.7352299228
 H          9.4321794964       -0.8402120186       -0.2796308836
 H          8.4267406207        0.6303760605        1.4265499149
 H          5.9391196272        0.7074371778        1.6686704220
 H          4.1852850011        0.9465772193       -1.3366253162
 H          2.8756785432        2.4661134876       -2.5058043580
 H          0.6403033326        3.4613932091       -2.8132895408
 H         -1.1759045977        2.9435379858       -1.2256162572
 C         -1.1253316651        1.3616396881        0.9148783759
 H         -1.5460667880        2.3240177321        1.2534932606
 C         -0.7017558112        0.6096222982        2.1678812681
 C         -1.6638254407       -0.2582662116        2.9206561478
 C         -0.5167614403       -0.8771185334        2.1823647584
 H          0.3096567784       -1.2836940615        2.7480697649
 H         -0.7158583843       -1.4146265953        1.2678045313
 H         -2.6565539361       -0.3777079741        2.5113435896
 H         -1.6343444104       -0.2413840566        3.9996642689
 H         -0.0054850288        1.1857076104        2.7705139625
 O         -3.8250838826        2.1427745336        1.1738839760
