  62
        -98.93797083
 C          2.0404343958        1.1509735658        0.7863666622
 C          1.9329699736       -0.2310358121        1.0915130448
 C          3.0883602403       -1.0673218694        0.7526483874
 C          4.1807298574       -0.5006758687        0.2098622598
 C          5.4561463872       -1.2088017016       -0.1590571889
 C          5.4255769153       -1.8720468983       -1.5427666233
 C          4.5590710745       -3.1281752770       -1.6416253411
 H          4.7983623420       -3.6090044044       -2.5922416122
 H          4.8358431534       -3.8224506508       -0.8475911555
 C          3.0485761284       -2.8590806452       -1.5911002939
 H          2.8599471512       -1.8015240828       -1.7912300314
 H          2.5504709808       -3.4255864657       -2.3813314714
 C          2.3787295241       -3.2392367693       -0.2704915856
 H          2.4391352586       -4.3203749437       -0.1271672685
 H          1.3223996867       -2.9663473443       -0.3394580679
 C          2.9744357944       -2.5469445330        0.9627205093
 H          2.3046151909       -2.7120749090        1.8101792674
 H          3.9484455694       -2.9747502692        1.1990632508
 H          5.0859440397       -1.1364388927       -2.2757567308
 H          6.4527957829       -2.1435922360       -1.7970119892
 H          6.2435785317       -0.4519342087       -0.1579291818
 H          5.6919566170       -1.9565537781        0.5987651692
 O          4.2542261910        0.8288254426       -0.0539606383
 C          3.1790900068        1.6841247485        0.1811227064
 O          3.3907290769        2.8539052436       -0.1846604368
 O          0.9147996478       -0.7378602837        1.6310695968
 C          0.8181223092        1.9944207254        1.1034830491
 C         -0.1935597273        1.8690891174       -0.0082794066
 C          0.1933470520        1.9766284522       -1.3401983345
 C         -0.7328598874        1.8285028556       -2.3567143659
 C         -2.0623755864        1.5752090720       -2.0668635415
 C         -2.4594729444        1.4650056821       -0.7411446505
 C         -1.5265567994        1.6133957181        0.2789412780
 H         -1.8386745147        1.5078695826        1.3092126479
 N         -3.8165620856        1.2083773786       -0.4541798043
 S         -4.4407648014       -0.2899214535       -0.8739055360
 O         -4.0360249746       -0.6007759472       -2.2200396953
 O         -5.8617683270       -0.2076910165       -0.6283107799
 C         -3.7029156188       -1.4288750398        0.2840001327
 C         -2.3522381233       -1.6985797076        0.1818345969
 C         -1.7603165157       -2.5178460778        1.1296488855
 C         -2.5276597323       -3.0592084446        2.1497450884
 C         -3.8849148394       -2.7873623203        2.2327280769
 C         -4.4791337859       -1.9553075656        1.2977614155
 H         -5.5274293337       -1.7054341575        1.3290171683
 H         -4.4775854221       -3.2122904758        3.0269548193
 H         -2.0595704107       -3.6936662365        2.8858283924
 H         -0.6983765960       -2.6975972785        1.0859812760
 H         -1.7797738745       -1.2643499129       -0.6227579956
 H         -4.0720215976        1.4132012626        0.5021033084
 H         -2.7920763842        1.4408300497       -2.8480987884
 H         -0.4175258309        1.9134815554       -3.3858918314
 H          1.2302006396        2.1774589377       -1.5690361681
 H          0.3754957688        1.5282462873        1.9986854484
 C          1.1324047965        3.4399677243        1.4549240085
 C          0.8538103896        4.5892673833        0.5385909670
 C          0.0199240216        4.3967777526        1.7675461601
 H          0.1442696274        5.0822365122        2.5919784605
 H         -0.9926776869        4.0482172881        1.6302169950
 H          1.5734675778        5.3928399369        0.5127642835
 H          0.4050970397        4.3807477253       -0.4200932944
 H          2.0274503567        3.5212396442        2.0625239838
