  62
        -98.94002428
 C         -2.2600649104       -0.9940765290        0.3562649905
 C         -2.3021937799        0.1391608000       -0.4937406208
 C         -3.2026355698        1.2237132407       -0.0683316222
 C         -3.8628778300        1.1202940422        1.0983334378
 C         -4.8528153799        2.1212267131        1.6179635665
 C         -6.2784568099        1.7804805129        1.1612663466
 C         -6.3970121896        1.4956011212       -0.3360664931
 H         -7.4502156596        1.2973337512       -0.5463397531
 H         -5.8460105298        0.5818110608       -0.5703665020
 C         -5.8997539992        2.6320309901       -1.2403903143
 H         -5.8445955191        3.5608279707       -0.6714688754
 H         -6.6262280590        2.7850254293       -2.0411745947
 C         -4.5494475791        2.3661951690       -1.9085165238
 H         -4.3985819488        3.1224163381       -2.6833410046
 H         -4.5719018292        1.3918658584       -2.4032601427
 C         -3.3273177493        2.4099567897       -0.9824965636
 H         -3.3326634492        3.3396696204       -0.4100236946
 H         -2.4318259292        2.3972957988       -1.6108610234
 H         -6.9338102297        2.6114653734        1.4284025055
 H         -6.6141993002        0.8948800036        1.7060457375
 H         -4.8168787501        2.1067711443        2.7086633065
 H         -4.5754867096        3.1138255726        1.2682735954
 O         -3.7306212405        0.0536836631        1.9291123690
 C         -2.9352204907       -1.0252632175        1.5786565804
 O         -2.8997986111       -1.9325938865        2.4349855615
 H          0.2821132794       -0.7396392184        1.4360219008
 C          0.7161141596       -0.9985131196        0.4767104911
 C         -0.0292086004       -1.7624878004       -0.4138531681
 C          0.5380995997       -2.0929074620       -1.6367103577
 C          1.8105841799       -1.6534191927       -1.9585777179
 C          2.5416530599       -0.8802662918       -1.0762466486
 C          1.9867902998       -0.5493636203        0.1533209509
 N          2.7142416298        0.2501810705        1.0516114301
 S          4.3098138096       -0.1511878095        1.3791145309
 O          4.5437855893       -1.5676481597        1.2196646226
 O          4.5759443095        0.4003527620        2.6901601203
 C          5.2393802601        0.7645218389        0.1679261701
 C          5.0496849404        2.1309331689        0.1020120185
 C          5.7731316608        2.8628831377       -0.8257461122
 C          6.6705129508        2.2201060065       -1.6656210913
 C          6.8515364805        0.8479444265       -1.5851504497
 C          6.1306020801        0.1097553078       -0.6592531790
 H          6.2353357998       -0.9592853322       -0.5635405178
 H          7.5498822405        0.3504851156       -2.2387925690
 H          7.2320204511        2.7925466155       -2.3869545418
 H          5.6346619111        3.9301059876       -0.8911159735
 H          4.3448106404        2.5919757398        0.7738468078
 H          2.2155030796        0.4677064716        1.9018073198
 H          3.5297981301       -0.5309171024       -1.3273411988
 H          2.2364870800       -1.9109641338       -2.9163328875
 H         -0.0237972103       -2.6746700426       -2.3485000371
 C         -1.4044710606       -2.2046895496        0.0246213821
 H         -1.2890233610       -2.7406028985        0.9820066727
 C         -2.0618246407       -3.1824573005       -0.9383934869
 C         -3.5542141907       -3.3011911603       -1.0155400071
 C         -2.7872540703       -2.7327339818       -2.1694660276
 H         -2.6949972703       -3.3303401628       -3.0646039769
 H         -2.8426960800       -1.6723968320       -2.3564119788
 H         -4.1415078706       -2.6287904594       -0.4065586180
 H         -3.9856312609       -4.2859208003       -1.1154646661
 H         -1.5045484909       -4.1113736308       -1.0119220958
 O         -1.6335562697        0.2522507687       -1.5519750808
