  62
        -98.94455327
 C         -2.6158004362       -1.2470459782        0.1264910962
 C         -2.6479255152       -0.2958357965       -0.9218175235
 C         -3.4842719870        0.8915981970       -0.6885791627
 C         -4.1628199423        1.0130869075        0.4659526834
 C         -4.9991820815        2.1969106674        0.8537070002
 C         -4.1709344733        3.2332981360        1.6259605449
 C         -2.8457536725        3.5943638558        0.9539294162
 H         -2.3663944333        4.3589773949        1.5693118257
 H         -2.1864479292        2.7224547579        0.9626574482
 C         -2.9820077755        4.1107092090       -0.4852684746
 H         -2.3385967975        4.9850151696       -0.6046734225
 H         -4.0075572690        4.4340488528       -0.6678787863
 C         -2.5681433809        3.1057953702       -1.5620898651
 H         -2.4891609002        3.6403575751       -2.5127975124
 H         -1.5753900496        2.7093565663       -1.3288067804
 C         -3.5266440607        1.9272093861       -1.7769211436
 H         -4.5430125451        2.3011555993       -1.9149197487
 H         -3.2213729951        1.4139373255       -2.6934381050
 H         -4.7740697117        4.1346307287        1.7487594705
 H         -3.9514246372        2.8324212877        2.6181200619
 H         -5.8129054015        1.8481116023        1.4916471959
 H         -5.4201409698        2.6476288674       -0.0428047516
 O         -4.1233546766        0.0731837324        1.4432583521
 C         -3.3439932802       -1.0610237998        1.3069405334
 O         -3.3872752021       -1.8289192132        2.2884622035
 O         -2.0220829853       -0.4073575956       -2.0110860749
 C         -1.7718455010       -2.5139065291        0.0773425499
 C         -0.3325235229       -2.1650081317        0.3728306304
 C          0.2390262596       -2.4874284529        1.5984968182
 C          1.5393944437       -2.1140479776        1.8896200285
 C          2.2923510905       -1.4056643310        0.9700261827
 C          1.7255731792       -1.0687981890       -0.2518494308
 C          0.4293282023       -1.4611744574       -0.5490354896
 H         -0.0112199292       -1.1758598843       -1.4926023209
 N          2.4741366763       -0.3224635636       -1.1842253172
 S          3.0539176799        1.1621807315       -0.6451564579
 O          2.2266417095        1.7021063110        0.4102477314
 O          3.1970959073        1.9761122939       -1.8326361872
 C          4.6732247265        0.7703200988       -0.0159697120
 C          5.5747017806        0.1712044945       -0.8740964940
 C          6.8399886922       -0.1413394500       -0.4036696178
 C          7.1814428581        0.1512089528        0.9085454693
 C          6.2663472057        0.7561963523        1.7563978608
 C          4.9983228115        1.0705757857        1.2921656747
 H          4.2514019269        1.5352767925        1.9160830962
 H          6.5333622304        0.9829267072        2.7761132264
 H          8.1665262100       -0.0939770939        1.2729166428
 H          7.5544648922       -0.6115320063       -1.0599429302
 H          5.2697088750       -0.0347724588       -1.8864201006
 H          1.9874377939       -0.1984006811       -2.0617180787
 H          3.3020596520       -1.1023836394        1.1945387330
 H          1.9695426558       -2.3721256040        2.8453571048
 H         -0.3537167260       -3.0153421768        2.3317284288
 H         -2.1389924494       -3.1445090726        0.8976603863
 C         -1.9216273401       -3.2822291754       -1.2203955572
 C         -1.5298157043       -4.7277589857       -1.2548806663
 C         -2.9759701123       -4.3409678523       -1.3246466190
 H         -3.4985635196       -4.4556683481       -2.2624293718
 H         -3.5946514796       -4.5173892949       -0.4566308344
 H         -1.0566791873       -5.1116470096       -2.1455284955
 H         -1.1677653711       -5.1686909438       -0.3384667463
 H         -1.7324612495       -2.6866001291       -2.1032059213
