  62
        -98.93872630
 C         -1.8034533259       -0.1418529690        0.1560223032
 C         -2.8204985865       -0.9128747507        0.7636517638
 C         -4.1709409243       -0.3247291789        0.7742539445
 C         -4.3557176160        0.8927199931        0.2345832323
 C         -5.6517301316        1.6421564352        0.0935237025
 C         -6.2851025107        1.3751950929       -1.2825241832
 C         -7.1807048827        0.1386982601       -1.3513873317
 H         -8.1031093629        0.3330438340       -0.8000185963
 H         -7.4509444444       -0.0080936064       -2.3996891676
 C         -6.5561466778       -1.1537798453       -0.8190643210
 H         -7.1072442150       -1.9927547253       -1.2484399054
 H         -5.5243644652       -1.2340308359       -1.1661479699
 C         -6.6035032873       -1.2604934460        0.7124627879
 H         -7.2763933837       -0.4963234460        1.1011415951
 H         -7.0337814405       -2.2237763215        0.9940104561
 C         -5.2436567671       -1.1590243543        1.4198302146
 H         -5.3995676229       -0.7981781405        2.4419206699
 H         -4.8026818037       -2.1570618021        1.5054591470
 H         -6.8843416052        2.2426243702       -1.5668211784
 H         -5.4753197921        1.2853291989       -2.0113252191
 H         -6.3353515402        1.3868970307        0.8977097763
 H         -5.4062118324        2.7039548127        0.1626904876
 O         -3.3432434376        1.6094218823       -0.3274400182
 C         -2.0505361175        1.1172276576       -0.3898411049
 O         -1.2348828000        1.8803866141       -0.9409678040
 O         -2.6106673512       -2.0463576301        1.2744482995
 C         -0.3941299190       -0.7033781335        0.0916194167
 C          0.5671073574        0.2378817251        0.7716579174
 C          0.2850043410        0.6481614598        2.0733340437
 C          1.1168376062        1.5297750202        2.7335078550
 C          2.2579249572        2.0117497412        2.1155350919
 C          2.5543944297        1.6015524657        0.8220442270
 C          1.7165471389        0.7118327596        0.1602564003
 H          1.9616593216        0.4269800889       -0.8489783618
 N          3.7013665575        2.0777287145        0.1747503143
 S          4.5408241713        1.1316145389       -0.9072946064
 O          5.8698752588        1.7059629285       -0.9270694286
 O          3.8654927574        1.0811407194       -2.1795483599
 C          4.6010909955       -0.5016536330       -0.1882395600
 C          4.8992242722       -0.6385094850        1.1532554827
 C          4.9575029395       -1.9100163350        1.7001883990
 C          4.7255635772       -3.0190193068        0.9010139359
 C          4.4378586088       -2.8661482495       -0.4459982892
 C          4.3739242067       -1.5960107341       -0.9966301895
 H          4.1464891796       -1.4305877028       -2.0372136305
 H          4.2596109914       -3.7283907343       -1.0684896978
 H          4.7700480971       -4.0076053806        1.3300340354
 H          5.1823651758       -2.0319837503        2.7474613328
 H          5.0812413036        0.2376119709        1.7535334074
 H          4.3068580029        2.6612472022        0.7316915975
 H          2.9056657885        2.7090611320        2.6245905330
 H          0.8785987821        1.8451424054        3.7381096515
 H         -0.6079572592        0.2729746450        2.5544776795
 H         -0.4263576081       -1.6388687006        0.6696141087
 C         -0.0285570412       -1.0302334480       -1.3402325984
 C          0.9544022812       -2.1206404823       -1.6390259158
 C         -0.5017485862       -2.3254793506       -1.9268248908
 H         -0.8303027307       -2.3370482082       -2.9553297066
 H         -1.0645801178       -2.9834963620       -1.2810149195
 H          1.6262044927       -1.9867546757       -2.4731843978
 H          1.3874148872       -2.6460609539       -0.8015048174
 H         -0.0356122323       -0.1573743912       -1.9844726615
