  62
        -98.93295414
 C          2.4184534505        0.9488781296        0.3760044789
 C          2.7817908707       -0.2193316403        1.0943026789
 C          4.1692788207       -0.6927017202        0.9532155686
 C          5.0148111805        0.0028051398        0.1735880483
 C          6.4513116804       -0.3109909501       -0.1422989920
 C          6.5595324402       -1.1353538001       -1.4362621020
 C          6.4525964903       -2.6477073101       -1.2464154319
 H          6.4194752901       -3.0988684402       -2.2407270319
 H          7.3549147205       -3.0119545900       -0.7508942821
 C          5.2329601306       -3.1207288502       -0.4513324816
 H          4.3476236805       -2.5677896603       -0.7711094914
 H          5.0616000306       -4.1714610402       -0.6931362315
 C          5.4122609410       -2.9833039301        1.0679449383
 H          6.4585082510       -2.7720442400        1.2874408381
 H          5.1818089012       -3.9368706701        1.5477261184
 C          4.5209635610       -1.9279685702        1.7370953685
 H          3.5558301111       -2.3761389002        1.9942395288
 H          4.9803619712       -1.6202537801        2.6827419984
 H          5.7764391700       -0.7932148102       -2.1176610818
 H          7.5203723900       -0.9209802801       -1.9084041623
 H          6.9488901903        0.6483290700       -0.2988636022
 H          6.9271976607       -0.8201073300        0.6903891979
 O          4.6279194402        1.1176503797       -0.5013186516
 C          3.3384466202        1.6165516396       -0.4327327813
 O          3.1680758899        2.6365882696       -1.1294393613
 O          1.9735756310       -0.8449066604        1.8343045791
 C          0.9919301005        1.4359803595        0.5517426893
 C          0.0760380502        1.0154658294       -0.5733307505
 C          0.3483037298        1.3337220693       -1.8996678006
 C         -0.5413997104        0.9827502192       -2.8986126703
 C         -1.7264310902        0.3357252691       -2.5953381600
 C         -2.0064754899        0.0118644092       -1.2731772399
 C         -1.0987118497        0.3404149893       -0.2761578602
 H         -1.3246122894        0.0684409193        0.7447848099
 N         -3.1942062597       -0.6520119409       -0.9278472996
 S         -3.9320716994       -0.2343089509        0.5341841906
 O         -3.8640012295        1.1957070591        0.7309674905
 O         -3.3758594491       -1.0497414608        1.5848620805
 C         -5.6128794294       -0.7335220111        0.2093150110
 C         -6.5258525996        0.2109936488       -0.2206756788
 C         -7.8236184097       -0.1889194513       -0.4981934185
 C         -8.1835007495       -1.5194109813       -0.3449061183
 C         -7.2561983093       -2.4557174112        0.0881597315
 C         -5.9571694793       -2.0626437311        0.3685543111
 H         -5.2055699592       -2.7517220710        0.7171810310
 H         -7.5406724692       -3.4884474612        0.2094164816
 H         -9.1940768195       -1.8280881414       -0.5609935681
 H         -8.5475702998        0.5371037786       -0.8314166583
 H         -6.2029177497        1.2352128588       -0.3163669689
 H         -3.8586446499       -0.6937795110       -1.6885623294
 H         -2.4267470704        0.0792087490       -3.3757651398
 H         -0.3168320506        1.2319894492       -3.9248621004
 H          1.2584988697        1.8627642194       -2.1364601908
 H          0.6301201007        0.9418155695        1.4645146194
 C          0.8800415104        2.9376008695        0.7478851992
 C         -0.3941589595        3.4997403394        1.3007936495
 C          0.8511297807        3.5013826795        2.1348999892
 H          1.3477309906        4.4422287996        2.3191251890
 H          0.9132482509        2.8052672596        2.9590161392
 H         -0.7508559197        4.4405967094        0.9102190996
 H         -1.1844627994        2.8064766493        1.5518704597
 H          1.3922320101        3.5079355395       -0.0161100609
