  62
        -98.94142066
 C         -1.7615910983       -0.8644741396        0.2228861151
 C         -2.0090781563        0.5034781443       -0.0711828429
 C         -3.3220010667        0.8260261773       -0.6427924994
 C         -4.1953212548       -0.1696710586       -0.8778435134
 C         -5.5852811086        0.0133280642       -1.4132009615
 C         -6.6017889995        0.1795031802       -0.2750570819
 C         -6.1897450285        1.2127005414        0.7735304482
 H         -5.3007099267        0.8535956902        1.2969804158
 H         -6.9949608751        1.2682114137        1.5093565540
 C         -5.9140713104        2.6137313677        0.2098552078
 H         -6.3962137975        3.3512086806        0.8550756874
 H         -6.3609985558        2.7091272821       -0.7803734097
 C         -4.4324320791        2.9877614230        0.1354733499
 H         -3.9596165354        2.8031018108        1.1032714585
 H         -4.3631334633        4.0604695954       -0.0635310888
 C         -3.6148533661        2.2687450200       -0.9452303733
 H         -2.6417904158        2.7638384694       -1.0112336294
 H         -4.1161158294        2.3653206631       -1.9104719156
 H         -6.7237998070       -0.7847326713        0.2238040218
 H         -7.5629991631        0.4612658394       -0.7088438120
 H         -5.6060633148        0.8856861668       -2.0635259203
 H         -5.8479750362       -0.8704507639       -1.9970667442
 O         -3.9186517931       -1.4682634893       -0.6068425175
 C         -2.7076732577       -1.8534576515       -0.0477457103
 O         -2.6249643013       -3.0831275002        0.1429471396
 H          1.9589126878       -0.0778781787        0.2096132192
 C          1.7779701819       -0.9764598763       -0.3600307026
 C          0.5875337698       -1.6679064950       -0.1902279736
 C          0.3623930008       -2.8123164712       -0.9477718401
 C          1.3137365731       -3.2476942045       -1.8518191910
 C          2.5114857773       -2.5701051191       -1.9995912488
 C          2.7469883049       -1.4270480760       -1.2454083980
 N          3.9456075479       -0.7127939468       -1.3739885198
 S          4.6618301780       -0.0216573428       -0.0281275375
 O          6.0549355899        0.1191297602       -0.3945216796
 O          4.3925987931       -0.7834589201        1.1685883662
 C          3.9301673041        1.5963073263        0.0851112660
 C          3.3881504843        2.0209153281        1.2815112454
 C          2.8412546001        3.2919475080        1.3569641610
 C          2.8473476785        4.1120755479        0.2397280568
 C          3.3991701054        3.6722097112       -0.9539986843
 C          3.9481444689        2.4029755959       -1.0352596517
 H          4.3880257096        2.0272946988       -1.9440078587
 H          3.4003465241        4.3139608629       -1.8203908753
 H          2.4175741778        5.0994534106        0.3006863608
 H          2.4090388127        3.6344477652        2.2835455218
 H          3.3985713015        1.3485777738        2.1254218512
 H          4.6254377192       -1.1265852891       -1.9949354098
 H          3.2591708479       -2.9225825624       -2.6939778081
 H          1.1270404143       -4.1346635207       -2.4385438899
 H         -0.5626969653       -3.3532559857       -0.8215956882
 C         -0.4099117277       -1.1842402586        0.8356365879
 H         -0.0381986985       -0.2250366621        1.2215849444
 C         -0.4704002377       -2.1691371578        1.9888307051
 C          0.7237913978       -2.2979705758        2.8852994225
 C         -0.5309352456       -1.6556594684        3.3944595438
 H         -1.1299102675       -2.1933585528        4.1141705043
 H         -0.5340766489       -0.5847582369        3.5367099297
 H          1.5795952931       -1.6718578084        2.6774503144
 H          0.9845695839       -3.2783848985        3.2539593301
 H         -1.0255669761       -3.0688720695        1.7580704996
 O         -1.1662695593        1.4154269401        0.1426509952
