  62
        -98.92812119
 C         -2.4216978333       -0.1475918252       -0.6241816632
 C         -3.4175037383        0.7214287777       -0.1201222448
 C         -4.6560113191        0.0893496281        0.3891792385
 C         -4.7593110356       -1.2515268268        0.3805443951
 C         -5.9237824178       -2.1022756748        0.8129578600
 C         -7.0700023441       -2.1026596178       -0.2118414753
 C         -7.4113404015       -0.7341776542       -0.7957853916
 H         -6.5205218611       -0.3127245388       -1.2650859216
 H         -8.1526303877       -0.8854020627       -1.5849814944
 C         -7.9860188976        0.2725344803        0.1978095364
 H         -8.2579695214        1.1675776972       -0.3676316976
 H         -8.9011756909       -0.1357471818        0.6325507572
 C         -7.0547831053        0.6951128509        1.3357952380
 H         -6.9986902345       -0.0730649439        2.1023216686
 H         -7.5002631560        1.5743516957        1.8106040730
 C         -5.6529486640        1.1046521954        0.8949564390
 H         -5.1585325247        1.6094911466        1.7339068411
 H         -5.7325546749        1.8657415703        0.1103120697
 H         -7.9555209385       -2.5306358796        0.2609761897
 H         -6.7811205150       -2.7543157983       -1.0400909086
 H         -5.5457802126       -3.1222324126        0.9120885239
 H         -6.2761028129       -1.7841499966        1.7896683812
 O         -3.7620433130       -2.0519151113       -0.0953682296
 C         -2.5901738334       -1.5340655104       -0.6038803127
 O         -1.7812564340       -2.3933442563       -1.0110186029
 O         -3.3110062995        1.9742097827       -0.0868848289
 C         -1.1025927668        0.3355239714       -1.2033317165
 C         -0.0608032198        0.4921425036       -0.1246031986
 C         -0.3290772417        1.1995730560        1.0426667639
 C          0.6430991246        1.3385687687        2.0166982205
 C          1.8969136367        0.7778980729        1.8496389291
 C          2.1768808850        0.0726128133        0.6869745490
 C          1.1993056926       -0.0633734401       -0.2915272260
 H          1.4156426202       -0.6263150180       -1.1896773991
 N          3.4453419112       -0.5092109910        0.5173553824
 S          4.7820651040        0.4311960748        0.9518611514
 O          4.9969479487        0.2885625423        2.3699957238
 O          4.6078266234        1.7834305482        0.4720108423
 C          6.0875258815       -0.3851093882        0.0557144531
 C          6.6701521525       -1.5121394440        0.6037298792
 C          7.6707874740       -2.1588698234       -0.1039974210
 C          8.0691021751       -1.6714319595       -1.3400469247
 C          7.4753584727       -0.5387305573       -1.8764381540
 C          6.4730497084        0.1123727495       -1.1747363610
 H          5.9907048826        1.0015455426       -1.5482362364
 H          7.7894069351       -0.1604115682       -2.8359315976
 H          8.8495637485       -2.1756460158       -1.8877079401
 H          8.1370187322       -3.0382275300        0.3101892520
 H          6.3352245235       -1.8488444123        1.5709134499
 H          3.5619198221       -0.9164377771       -0.4004328523
 H          2.6638311722        0.8836414791        2.6001618037
 H          0.4229946433        1.8917028722        2.9177814032
 H         -1.3024290927        1.6472296092        1.1736244668
 H         -0.7686198620       -0.4796511187       -1.8650389170
 C         -1.2495624966        1.5812734213       -2.0673320843
 C         -0.7438985765        2.9327224511       -1.6731840355
 C         -0.0490672456        2.1634880010       -2.7536281004
 H         -0.1468474672        2.4963466341       -3.7758136367
 H          0.9148258161        1.7382445167       -2.5161873734
 H         -1.3442819563        3.7880870721       -1.9424465252
 H         -0.2465084621        3.0360633486       -0.7216009169
 H         -2.1723497744        1.5654512415       -2.6383202037
