  62
        -98.94367705
 C          1.1356728776        1.4799017067        0.2236757962
 C          1.5925000604        0.4387139487        1.0718887806
 C          2.4663203204       -0.5719918801        0.4628162177
 C          2.7493484542       -0.4838235363       -0.8492615263
 C          3.6383177292       -1.4315275413       -1.6004022648
 C          5.0940616863       -0.9451813291       -1.6081003587
 C          5.6199397295       -0.5577240093       -0.2259208257
 H          6.6644069918       -0.2623525881       -0.3464985461
 H          5.0756187176        0.3211645866        0.1271426426
 C          5.5201796523       -1.6719945278        0.8251591717
 H          5.3884617405       -2.6353955525        0.3314288909
 H          6.4610970991       -1.7164098570        1.3775469708
 C          4.4074750014       -1.4736982089        1.8559407114
 H          4.5669567276       -2.1880622682        2.6678449458
 H          4.4803701670       -0.4703728452        2.2828742111
 C          2.9749302736       -1.6768245469        1.3458879804
 H          2.8948544023       -2.6414134789        0.8399569699
 H          2.3151167465       -1.6898240213        2.2178611120
 H          5.7191213101       -1.7339590173       -2.0307956166
 H          5.1629843838       -0.0711496791       -2.2600344014
 H          3.5747083214       -2.4177079984       -1.1439552027
 H          3.2758582055       -1.4954512960       -2.6282245682
 O          2.2873515018        0.5174256932       -1.6364217961
 C          1.4650727632        1.5216669916       -1.1332215867
 O          1.1336542354        2.3634556351       -1.9868075570
 O          1.2765738519        0.3585122574        2.2897865578
 C          0.1963940616        2.4913046667        0.8573805782
 C         -1.2185230655        1.9658531791        0.8443403575
 C         -2.0561135992        2.1311767305        1.9417292130
 C         -3.3480503191        1.6364159519        1.9231575018
 C         -3.8165998589        0.9358215217        0.8260920872
 C         -2.9820011060        0.7512195825       -0.2693908281
 C         -1.7026663986        1.2864285401       -0.2643848104
 H         -1.0752578750        1.1455997032       -1.1315346321
 N         -3.3936935980       -0.0073222926       -1.3852443298
 S         -2.4512870160       -1.3510425966       -1.7386176043
 O         -1.1805928676       -0.9479445207       -2.2818859149
 O         -3.2841270133       -2.1698775638       -2.5931435443
 C         -2.2386727192       -2.1321492156       -0.1505208434
 C         -1.1503145361       -1.7866054508        0.6237890970
 C         -1.0544755900       -2.2901674171        1.9109991774
 C         -2.0400269927       -3.1359173257        2.3955559087
 C         -3.1206966883       -3.4870691445        1.5997997278
 C         -3.2297928626       -2.9730207832        0.3180062069
 H         -4.0541982375       -3.2161390741       -0.3328202628
 H         -3.8819175178       -4.1499324714        1.9784565491
 H         -1.9631186897       -3.5222622529        3.3995474343
 H         -0.2174588421       -1.9945944181        2.5239455538
 H         -0.3962859951       -1.1294796247        0.2187281476
 H         -4.3664999016       -0.2812158103       -1.3511173279
 H         -4.8156356463        0.5273673241        0.8178311490
 H         -3.9899889009        1.7786632269        2.7786748935
 H         -1.6826254253        2.6374276696        2.8193889821
 H          0.5083117143        2.5530214863        1.9128294070
 C          0.3049310171        3.8893672906        0.2680539168
 C         -0.7153485685        4.4623716748       -0.6643191322
 C         -0.6066727274        4.9857927331        0.7345639469
 H         -0.1899240944        5.9698180666        0.8864561341
 H         -1.3937518426        4.7254815871        1.4252577456
 H         -0.3601567649        5.0683629077       -1.4835262133
 H         -1.5663951139        3.8502036798       -0.9207804556
 H          1.3364208720        4.1646153579        0.0735663554
