  62
        -98.92997082
 C          2.2647020554        0.6019341607        0.8546658260
 C          3.4320439300        1.0089418036        0.1649964118
 C          4.5905210172        0.0941606339        0.2360771082
 C          4.4843328081       -1.0691094488        0.9025411491
 C          5.4944938340       -2.1671413428        1.1638540695
 C          6.7957307998       -2.2385929397        0.3685962901
 C          6.6229030499       -2.5627160829       -1.1148154429
 H          7.6012388569       -2.4924148809       -1.5952350303
 H          6.2802534997       -3.5964669339       -1.2069171745
 C          5.6333382532       -1.6804957415       -1.8719228516
 H          5.6108484259       -2.0199081923       -2.9111159305
 H          4.6293058878       -1.8231621349       -1.4665241857
 C          5.9595989363       -0.1883715000       -1.8772995856
 H          5.2756607026        0.2949219981       -2.5799298684
 H          6.9769670705       -0.0358957209       -2.2425703878
 C          5.8119168477        0.5273444799       -0.5232996122
 H          6.7036025675        0.4087580613        0.0873254650
 H          5.6869731321        1.5961270175       -0.7196431367
 H          7.3647959677       -1.3222610706        0.4942726278
 H          7.3876830416       -3.0423851756        0.8148226472
 H          5.7431413985       -2.0937308821        2.2284785788
 H          4.9471631659       -3.1072206291        1.0411514477
 O          3.3301242131       -1.4256637959        1.5423637225
 C          2.2118063302       -0.6142837291        1.5373903918
 O          1.2438346818       -1.0771245385        2.1766844731
 O          3.5321227667        2.0821139264       -0.4813338453
 C          0.9913599520        1.4295558745        0.9014405236
 C          0.0980948943        1.1214515935       -0.2733254544
 C          0.5903942674        1.1157177320       -1.5748951279
 C         -0.2473893279        0.8308110911       -2.6371936328
 C         -1.5846859735        0.5469209337       -2.4240496683
 C         -2.0892047955        0.5581771192       -1.1284981278
 C         -1.2448189762        0.8430227745       -0.0639152330
 H         -1.6413034016        0.8253764967        0.9400556872
 N         -3.4565270148        0.3253532434       -0.8990001144
 S         -3.9437656148       -0.5006633741        0.4906596398
 O         -3.8353217378        0.3863796087        1.6210410982
 O         -3.2499060182       -1.7655656181        0.5882915082
 C         -5.6640860354       -0.7635075746        0.1020196396
 C         -6.0783076046       -1.9939911106       -0.3711149287
 C         -7.4152554972       -2.1739577100       -0.6903772469
 C         -8.3093486406       -1.1255146440       -0.5346824428
 C         -7.8786808280        0.1039233292       -0.0580524737
 C         -6.5439745729        0.2901254045        0.2642984092
 H         -6.1652433380        1.2233276261        0.6470142038
 H         -8.5772448328        0.9158350337        0.0642867607
 H         -9.3489620062       -1.2683540578       -0.7837039995
 H         -7.7534989152       -3.1294728246       -1.0575781715
 H         -5.3490644355       -2.7824619542       -0.4671182820
 H         -3.9250050548       -0.0455453961       -1.7152424026
 H         -2.2356188756        0.3217129736       -3.2552448127
 H          0.1460552000        0.8258748151       -3.6426287547
 H          1.6320374766        1.3426965067       -1.7426881202
 H          0.4624791207        1.0914633641        1.8080513868
 C          1.2542669505        2.9215863409        1.0640079746
 C          0.9754711325        3.9327613616       -0.0028837873
 C          0.0985195955        3.8672254244        1.2087967775
 H          0.1642355833        4.6553327301        1.9436305100
 H         -0.8933873184        3.4559077234        1.0899211514
 H          1.6673355775        4.7549716654       -0.1018052830
 H          0.5745683222        3.5860770252       -0.9419544765
 H          2.1187341272        3.1115711941        1.6920031141
