  62
        -98.94417171
 C         -2.6357116278       -1.0969052019        0.1956151276
 C         -2.7427669953       -0.2931454224       -0.9653105218
 C         -3.5594125556        0.9217489347       -0.8275270687
 C         -4.1460800664        1.1929820643        0.3526346396
 C         -4.9540813225        2.4233630318        0.6460575577
 C         -4.0710348934        3.5466100089        1.2078652047
 C         -2.8038080960        3.8028111889        0.3917868851
 H         -2.1535943830        2.9270616485        0.4582186185
 H         -2.2738187730        4.6319686858        0.8658063235
 C         -3.0561294437        4.1334296593       -1.0859627182
 H         -2.4292993059        4.9824957589       -1.3661520244
 H         -4.0942229349        4.4373611606       -1.2245768477
 C         -2.7270804799        2.9964457824       -2.0553155628
 H         -1.7187302394        2.6239932956       -1.8565026177
 H         -2.7312839695        3.4033332492       -3.0698587422
 C         -3.6921424282        1.8042677206       -2.0366615346
 H         -3.4530675841        1.1709433924       -2.8958490871
 H         -4.7189162082        2.1591488473       -2.1450065100
 H         -3.7749973859        3.2788004149        2.2250652763
 H         -4.6648635967        4.4610219832        1.2574018677
 H         -5.4451945685        2.7549868589       -0.2665738369
 H         -5.7148055633        2.1673911732        1.3854235376
 O         -4.0238506987        0.3927856280        1.4437059313
 C         -3.2561345258       -0.7601144792        1.3973754308
 O         -3.2007654428       -1.3862445808        2.4765679092
 H         -0.3329388808       -0.3496114126        1.0999306505
 C          0.2363678154       -0.9426499796        0.3930409142
 C         -0.3711872475       -2.0359974217       -0.2123768794
 C          0.3775371975       -2.7987326156       -1.0987894607
 C          1.6886706578       -2.4572598438       -1.3833771448
 C          2.2809892764       -1.3557029557       -0.7945599104
 C          1.5464958210       -0.5936685986        0.1048726716
 N          2.1368983632        0.5339263188        0.7041847460
 S          3.6163374497        0.3293485651        1.4742819257
 O          3.7654441872       -1.0149023699        1.9822417269
 O          3.6845751644        1.3961806524        2.4492489412
 C          4.8138527094        0.6355645477        0.1932759391
 C          5.7862352581       -0.3066778504       -0.0789004007
 C          6.7156041107       -0.0419508689       -1.0729261932
 C          6.6561847008        1.1535108650       -1.7726146863
 C          5.6743218671        2.0902236886       -1.4853630007
 C          4.7433809410        1.8327728318       -0.4917862767
 H          3.9671744454        2.5346368038       -0.2358793615
 H          5.6309481950        3.0185729786       -2.0318304489
 H          7.3792290369        1.3567726991       -2.5466821298
 H          7.4799153451       -0.7684186886       -1.2974236435
 H          5.7887200695       -1.2245607426        0.4869875952
 H          1.5050906114        1.0542016200        1.2956153883
 H          3.2987247241       -1.0823113106       -1.0203676795
 H          2.2563536795       -3.0563399603       -2.0788025419
 H         -0.0667069783       -3.6598316483       -1.5701995063
 C         -1.7983409301       -2.3617853770        0.1596437820
 H         -1.7962898075       -2.7555541993        1.1874041728
 C         -2.4415413598       -3.3864784875       -0.7521203005
 C         -2.2850298995       -4.8507190190       -0.4756623074
 C         -3.6031492243       -4.1795708090       -0.2362195127
 H         -4.4221671644       -4.3919266801       -0.9067728082
 H         -3.9104724294       -3.9995023700        0.7841123467
 H         -1.7003304174       -5.1382025042        0.3852816504
 H         -2.2024428167       -5.5279333875       -1.3123739884
 H         -2.4780864630       -3.0582087689       -1.7843689317
 O         -2.1844089109       -0.5716393327       -2.0573861861
