  62
        -98.93644083
 C         -1.4691449162       -1.4536336332       -0.3330469647
 C         -1.5974092551       -0.0699010448       -0.6083275514
 C         -2.6973779310        0.6319630956        0.0809867159
 C         -3.4895011527       -0.0381299219        0.9325069546
 C         -4.6318986842        0.4895821037        1.7638632242
 C         -5.6186416179        1.4499723570        1.0830334245
 C         -5.8236170300        1.2194764150       -0.4215352306
 H         -5.3884192676        0.2631020728       -0.7161936466
 H         -6.8942779080        1.1681432896       -0.6279883542
 C         -5.2333300097        2.3381555625       -1.2840063149
 H         -5.7190097777        2.3200887718       -2.2626309130
 H         -5.4695692713        3.2980928283       -0.8197076247
 C         -3.7261157224        2.2578052834       -1.5247727954
 H         -3.4174095933        3.1726085420       -2.0362194375
 H         -3.5019349328        1.4236530586       -2.1948821457
 C         -2.8658131288        2.0837311462       -0.2628485916
 H         -1.8624000865        2.4632391683       -0.4756586179
 H         -3.2709951958        2.6475666453        0.5742063384
 H         -5.2926766556        2.4771472864        1.2421743212
 H         -6.5729985552        1.3400808587        1.6008706605
 H         -4.2099846432        0.9762260108        2.6483610133
 H         -5.1648245371       -0.3996588726        2.1093431016
 O         -3.3203573533       -1.3675964359        1.1848705199
 C         -2.3168878938       -2.0953995847        0.5715612984
 O         -2.2869899383       -3.2998205329        0.8998046726
 O         -0.8460372525        0.5716915600       -1.3849477720
 C         -0.3881029442       -2.3359533283       -0.9351815808
 C          0.8406388883       -2.3607466098       -0.0589296700
 C          1.5580394336       -3.5369410472        0.1292243800
 C          2.6847416796       -3.5501964438        0.9321041803
 C          3.1110320969       -2.3984251722        1.5676326842
 C          2.3892307723       -1.2198512148        1.4025980964
 C          1.2708126837       -1.2080156344        0.5815491109
 H          0.7131867894       -0.2937975081        0.4698535550
 N          2.7675968564       -0.0625955986        2.0862879762
 S          2.3402233668        1.4915271409        1.6624434984
 O          3.0861193186        2.3077889492        2.5979027370
 O          0.9087084035        1.6506838777        1.6869859458
 C          3.0100724614        1.7417044512        0.0288768571
 C          2.2033331008        1.7305495891       -1.0896481330
 C          2.7894280196        1.9279529194       -2.3320222034
 C          4.1567542037        2.1229696241       -2.4365262872
 C          4.9537270454        2.1282780403       -1.3009515239
 C          4.3765426066        1.9377072795       -0.0574660203
 H          4.9552234798        1.9574673586        0.8516646905
 H          6.0177274192        2.2820917720       -1.3819934043
 H          4.6028027695        2.2736169796       -3.4069670456
 H          2.1638213318        1.9241648830       -3.2100652956
 H          1.1413094837        1.5629555871       -0.9969315435
 H          3.6398227322       -0.1078744591        2.5889948780
 H          3.9822887208       -2.4113800235        2.2041561649
 H          3.2339783949       -4.4689766148        1.0707689759
 H          1.2149611141       -4.4480662040       -0.3384509933
 H         -0.8094048766       -3.3546795136       -0.9305960442
 C         -0.0663107548       -1.9850165652       -2.3818797401
 C          1.2001477479       -1.3063884434       -2.7981552629
 C          0.9823679841       -2.7486688853       -3.1356139490
 H          0.7828687859       -3.0166083598       -4.1621160590
 H          1.5584933690       -3.4806954388       -2.5913981929
 H          1.1365557319       -0.5711434345       -3.5847040068
 H          1.9190968077       -1.0605650317       -2.0318034389
 H         -0.9598737581       -1.7158311477       -2.9356327251
