  62
        -98.94359613
 C         -1.9944187651       -1.3510627168       -0.0829224084
 C         -1.9095195951       -0.0526090351       -0.6409832983
 C         -3.1877564416        0.6548313064       -0.8062313385
 C         -4.3317942415        0.0460976778       -0.4443554955
 C         -5.6919290470        0.6781243150       -0.4962602869
 C         -6.0289489215        1.3755442737        0.8294058642
 C         -4.9231021040        2.2982026194        1.3427147719
 H         -5.2842091471        2.7550509394        2.2668019115
 H         -4.0483915564        1.6975893084        1.6032460815
 C         -4.5051467159        3.3990275826        0.3577649029
 H         -4.4215850118        4.3420990115        0.9020995142
 H         -5.2783398612        3.5303943941       -0.4001743933
 C         -3.1588085637        3.1592137578       -0.3279188635
 H         -2.3981221299        2.9368461381        0.4251022106
 H         -2.8627399719        4.0855613764       -0.8274600489
 C         -3.1382214049        2.0429958073       -1.3796132161
 H         -3.9492619064        2.1959424539       -2.0942726780
 H         -2.1882519888        2.1116741236       -1.9172112286
 H         -6.2137113207        0.6096336667        1.5864065667
 H         -6.9486975470        1.9477002119        0.6947146044
 H         -6.4292044226       -0.1047846225       -0.6818080529
 H         -5.7241252606        1.3950476795       -1.3142997955
 O         -4.3740828372       -1.2114768661        0.0662052474
 C         -3.2100936854       -1.9354657393        0.2699582490
 O         -3.3858859962       -3.0674270049        0.7656130708
 O         -0.8274701717        0.4897041327       -0.9798781758
 C         -0.7297799596       -2.1576844539        0.1441197526
 C          0.2366612211       -1.4026690167        1.0249581361
 C         -0.2468309265       -0.6724043200        2.1070026704
 C          0.6102869229        0.0376147113        2.9260540230
 C          1.9750436516        0.0229981938        2.6965157457
 C          2.4710630287       -0.7163182541        1.6323059813
 C          1.6061889411       -1.4242692296        0.8054842850
 H          2.0107638364       -1.9906714487       -0.0192834453
 N          3.8646368163       -0.7398530916        1.4065799448
 S          4.5885603476        0.6816454153        0.8922917012
 O          6.0005778820        0.3894876430        0.7958666915
 O          4.2126741568        1.7461161967        1.7859246809
 C          3.9232519021        0.9613057735       -0.7389071715
 C          4.7225055396        0.7289657210       -1.8414345832
 C          4.1776412369        0.8761125429       -3.1065738782
 C          2.8438038528        1.2304399885       -3.2467186790
 C          2.0531904036        1.4547383673       -2.1302081823
 C          2.5971522796        1.3250568219       -0.8622798963
 H          1.9977066699        1.4935986814        0.0175393438
 H          1.0073979220        1.6989868575       -2.2235040471
 H          2.4153840634        1.3306450106       -4.2318246916
 H          4.7896094439        0.7055549868       -3.9778987753
 H          5.7503745230        0.4439431912       -1.6843382764
 H          4.1578340092       -1.4931325903        0.7992748421
 H          2.6565501049        0.5851711919        3.3133710537
 H          0.2135125814        0.6063564346        3.7538356772
 H         -1.3123133747       -0.6604563184        2.2943138351
 H         -1.0406133806       -3.0663896155        0.6810123187
 C         -0.1312857152       -2.5600711730       -1.1894429280
 C          0.5960002593       -3.8621593003       -1.3372364408
 C         -0.7604294634       -3.6873131557       -1.9495775557
 H         -0.8378516593       -3.6072352383       -3.0233538962
 H         -1.6004031043       -4.1861543519       -1.4877877208
 H          1.4503413039       -3.9049186725       -1.9964267135
 H          0.6776649258       -4.4939943404       -0.4654256003
 H          0.2215935433       -1.7073742217       -1.7587097057
