  62
        -98.93572156
 C         -1.9651936665       -1.2775411749       -0.1376204602
 C         -3.0757902030       -1.1388758025        0.7343525326
 C         -4.2815301695       -0.4971193512        0.1869667637
 C         -4.2804913412       -0.0825950692       -1.0910381243
 C         -5.4005256270        0.5519592798       -1.8770267943
 C         -6.2455699679        1.6203289562       -1.1706649883
 C         -5.4815015830        2.4879536198       -0.1597559745
 H         -4.4070049643        2.3249026204       -0.2615159571
 H         -5.6723371624        3.5401504702       -0.3792737555
 C         -5.9012398492        2.2269327320        1.2888720248
 H         -6.9895264381        2.1431531712        1.3283912144
 H         -5.6176336629        3.0893093723        1.8970499472
 C         -5.2802755331        0.9911994974        1.9391883539
 H         -4.2134398575        1.1593984437        2.1111027953
 H         -5.7445315615        0.8581650207        2.9193211278
 C         -5.4236403072       -0.3173367214        1.1449824115
 H         -5.3564735365       -1.1481182493        1.8526328334
 H         -6.3851267159       -0.3685479698        0.6398302987
 H         -7.0865323859        1.1460303838       -0.6668073769
 H         -6.6660505834        2.2562275335       -1.9516747576
 H         -4.9193020818        0.9881368293       -2.7558910352
 H         -6.0586557532       -0.2457008263       -2.2340819514
 O         -3.1921503773       -0.2306475914       -1.8955753018
 C         -2.0125267223       -0.8144585097       -1.4518253305
 O         -1.1194690688       -0.8446219862       -2.3199354609
 H          0.3131031821        0.1594245735       -0.8771694780
 C          0.7129880945        0.0680399203        0.1220508749
 C          0.2757429006       -0.9670412853        0.9377379961
 C          0.8064804990       -1.0738466598        2.2178941591
 C          1.7439205075       -0.1615240680        2.6714642067
 C          2.1762405137        0.8688244554        1.8564910967
 C          1.6560508862        0.9805337725        0.5729077357
 N          2.1028744598        2.0121934910       -0.2715944433
 S          3.7580114397        2.2470185920       -0.3791537772
 O          4.2024707756        3.0403544092        0.7400983720
 O          3.9810433000        2.8211295616       -1.6870121447
 C          4.4658921241        0.6124852418       -0.2776468998
 C          4.1587305487       -0.2910564166       -1.2757942375
 C          4.6613351891       -1.5794443749       -1.1915147256
 C          5.4561992414       -1.9408470956       -0.1144853565
 C          5.7609018786       -1.0203698513        0.8760363465
 C          5.2606669284        0.2695122929        0.7971864851
 H          5.4711493731        1.0160369083        1.5454315813
 H          6.3814352864       -1.3035675031        1.7108153828
 H          5.8389735969       -2.9469364659       -0.0494734411
 H          4.4228675822       -2.2969057246       -1.9601048325
 H          3.5390340063        0.0216646049       -2.1018491627
 H          1.6770011321        1.9944886693       -1.1868784363
 H          2.8993716807        1.5933049973        2.1941272080
 H          2.1419685053       -0.2524549640        3.6702825468
 H          0.4680176005       -1.8703425587        2.8639771216
 C         -0.7359363513       -1.9635300384        0.4327718519
 H         -1.1134794286       -2.5182988491        1.3061246522
 C         -0.1321932850       -2.9859384972       -0.5217731147
 C          1.1694505468       -2.7973487199       -1.2350484340
 C          1.0717045590       -3.7816185698       -0.1110245173
 H          1.0961425101       -4.8364214788       -0.3379722341
 H          1.5447869583       -3.5158564833        0.8221609451
 H          1.7192446813       -1.8856996813       -1.0638930814
 H          1.2378450909       -3.1628159911       -2.2483093673
 H         -0.9027261261       -3.5188712905       -1.0706673144
 O         -3.0654843305       -1.5547663296        1.9234259163
