  62
        -98.93719920
 C         -1.3034224880       -1.1351960185        0.0103680847
 C         -1.8187465663       -0.0462422723        0.7490806957
 C         -2.8490000338        0.7806002189        0.0900319355
 C         -3.2216609550        0.4688857815       -1.1654331412
 C         -4.2726710054        1.1334575688       -2.0142855362
 C         -5.7018381303        0.7561860643       -1.5906449515
 C         -5.9489061699        0.7559574686       -0.0841625729
 H         -6.9543448438        0.3622410008        0.0865975050
 H         -5.2476092145        0.0695341920        0.3936616192
 C         -5.8624379761        2.1228583343        0.5906229060
 H         -6.5983868236        2.7921641554        0.1393128789
 H         -6.1388680632        1.9850214996        1.6390923951
 C         -4.4939690573        2.8053623163        0.5456382981
 H         -4.5223117977        3.6370739604        1.2557762042
 H         -4.3066950252        3.2418831830       -0.4318786908
 C         -3.3251393763        1.9178165411        0.9616941256
 H         -3.5424796785        1.4757617186        1.9404991139
 H         -2.4458193886        2.5536243600        1.1215371072
 H         -5.9077803909       -0.2510485724       -1.9611313352
 H         -6.3978241709        1.4421716210       -2.0765213235
 H         -4.1363411585        2.2109655273       -2.0025856241
 H         -4.1122324295        0.7899356687       -3.0387657978
 O         -2.6797679108       -0.5809012335       -1.8484230320
 C         -1.7109305026       -1.4004693579       -1.2958764761
 O         -1.3003979701       -2.3000335391       -2.0534599040
 O         -1.4363048159        0.2309031602        1.9168966966
 C         -0.2391527153       -2.0068089000        0.6446518366
 C          1.0699760209       -1.9069593444       -0.0997159144
 C          1.9771791453       -2.9581108473       -0.1664075857
 C          3.1986864822       -2.7997277568       -0.7988936813
 C          3.5479545959       -1.5915970761       -1.3757882831
 C          2.6465448407       -0.5391833543       -1.3205346391
 C          1.4262006731       -0.6984715866       -0.6832639129
 H          0.7369220474        0.1360714747       -0.6346465497
 N          3.0171714039        0.7188649305       -1.8636813906
 S          3.9956387663        1.6008428753       -0.8214832782
 O          4.0675018430        2.9355785824       -1.3714052486
 O          5.2441923568        0.8997727311       -0.6701087793
 C          3.0952811824        1.6054773875        0.7174386069
 C          2.1573074192        2.5948215279        0.9359729301
 C          1.3645695736        2.5282242085        2.0699807727
 C          1.5095361970        1.4693929495        2.9525937003
 C          2.4562225578        0.4844667492        2.7185703316
 C          3.2572267456        0.5479494331        1.5897950453
 H          4.0003764268       -0.2015173413        1.3703013705
 H          2.5642671961       -0.3396010345        3.4053468421
 H          0.8701961138        1.4066699257        3.8184030631
 H          0.6247217517        3.2902534748        2.2562729176
 H          2.0702186627        3.3976677276        0.2204717855
 H          2.2166667688        1.2886297287       -2.1023302237
 H          4.5027817740       -1.4417937085       -1.8522807206
 H          3.8899337156       -3.6275305901       -0.8398078606
 H          1.7274038661       -3.9054180061        0.2829239259
 H         -0.0793060933       -1.5806812752        1.6476801755
 C         -0.7322727372       -3.4319318454        0.7937513424
 C         -0.3193821789       -4.2621097014        1.9715254244
 C         -1.7213225533       -3.7428581251        1.8760414550
 H         -2.5195601692       -4.4375412177        1.6618792659
 H         -2.0121436883       -2.9320336702        2.5279867779
 H         -0.1557187643       -5.3191632892        1.8246604363
 H          0.3362858753       -3.8092935771        2.6996831549
 H         -0.8654405803       -3.9264827772       -0.1618332314
