  62
        -98.93871479
 C         -2.5739884398       -1.3719817315        0.1426373796
 C         -2.5242725601       -0.3163080211       -0.7967348700
 C         -3.5283961003        0.7537444886       -0.6398132994
 C         -4.4286588002        0.6804796680        0.3579025107
 C         -5.5825573503        1.5870050176        0.7330562612
 C         -5.7019621207        2.9870391979        0.1372392118
 C         -4.6195863408        3.9677399079        0.5884655621
 H         -4.7344317311        4.8916183881        0.0175941826
 H         -4.7841349508        4.2051971674        1.6424232923
 C         -3.1811654407        3.4745338782        0.4499472018
 H         -2.5185663209        4.2604215082        0.8228476020
 H         -3.0278653305        2.6003907280        1.0864299814
 C         -2.7383819208        3.1346882589       -0.9718329984
 H         -2.9056859211        3.9939546792       -1.6245933580
 H         -1.6613850908        2.9421331591       -0.9435642786
 C         -3.4146358107        1.9035587391       -1.5988534789
 H         -4.3858159208        2.1563919491       -2.0171934587
 H         -2.7827956007        1.5564177996       -2.4217982691
 H         -6.6649403207        3.3849384075        0.4684677621
 H         -5.7406280308        2.9330480483       -0.9466796782
 H         -6.4910105803        1.0269263476        0.4854547511
 H         -5.5570362002        1.6640105471        1.8246318512
 O         -4.4454065499       -0.3683629324        1.2321114802
 C         -3.5215207197       -1.3931324722        1.1671543297
 O         -3.6483686294       -2.2549496926        2.0592994893
 H          0.4524912600       -1.6303652202       -1.5233944709
 C          0.6880439801       -1.5129847406       -0.4778227809
 C         -0.2165863397       -1.9330180112        0.4840034991
 C          0.0983504504       -1.7384296217        1.8261482491
 C          1.2907702403       -1.1428397217        2.1913688692
 C          2.1882122202       -0.7162524811        1.2272095293
 C          1.8742390900       -0.8887351705       -0.1134390907
 N          2.7694494199       -0.4444794299       -1.1016947806
 S          3.4220999796        1.0940964501       -0.9460889500
 O          2.5453909695        1.9835939696       -0.2197607595
 O          3.7753210793        1.4940850808       -2.2910324799
 C          4.9179579097        0.8158688600       -0.0188790403
 C          5.7940496899       -0.1511591596       -0.4718150908
 C          6.9659718800       -0.3754173397        0.2325872390
 C          7.2424415400        0.3685344799        1.3701129493
 C          6.3549268598        1.3385812995        1.8097154598
 C          5.1802677997        1.5672607396        1.1097753200
 H          4.4575910896        2.3060335593        1.4181331704
 H          6.5711864698        1.9163425291        2.6939814700
 H          8.1547815901        0.1913543998        1.9174045391
 H          7.6583615101       -1.1291248294       -0.1061424914
 H          5.5425738599       -0.7061907893       -1.3600229510
 H          2.4291983498       -0.5909660296       -2.0415803806
 H          3.1127744501       -0.2369802310        1.5046959094
 H          1.5236640604       -1.0033758521        3.2361526093
 H         -0.6145299794       -2.0476061222        2.5783050091
 C         -1.5633890096       -2.5086570113        0.1201576990
 H         -1.8682378794       -3.1954685017        0.9206794787
 C         -1.5784190996       -3.2586165407       -1.1952248214
 C         -0.9102988394       -4.5970947106       -1.2805961820
 C         -2.4052521594       -4.5016844008       -1.3171574518
 H         -2.9128361594       -4.6921093105       -2.2509357819
 H         -2.9606887392       -4.8192048613       -0.4467197319
 H         -0.3896022194       -4.8575913701       -2.1893266822
 H         -0.4489451892       -4.9798790109       -0.3828955623
 H         -1.5332504098       -2.6110803303       -2.0617949011
 O         -1.6932089503       -0.2587403805       -1.7418836800
