  62
        -98.94365045
 C         -2.6355064045        0.1443865668        0.2034213815
 C         -2.1639191940        0.9238819759       -0.8821419416
 C         -1.7389340781        2.2946019624       -0.5520662112
 C         -1.7882130906        2.7200596454        0.7219070950
 C         -1.3482647496        4.0741624166        1.1977627748
 C          0.1236365167        4.0716701157        1.6302994807
 C          1.0746326747        3.4519519722        0.6054555008
 H          2.0885089294        3.5633563755        0.9978886600
 H          0.8828071344        2.3781853746        0.5343998360
 C          0.9995078028        4.0767684718       -0.7943652130
 H          0.5318856955        5.0611968154       -0.7370032988
 H          2.0165821952        4.2191563771       -1.1659254049
 C          0.2664861093        3.2240852697       -1.8320206106
 H          0.6614511403        2.2047465148       -1.8120499540
 H          0.4790222907        3.6372144324       -2.8223978783
 C         -1.2592553527        3.1578426968       -1.6849320951
 H         -1.6655209763        4.1683637094       -1.5961573723
 H         -1.6594066253        2.7039195281       -2.5965006299
 H          0.4237923122        5.1025548833        1.8297348661
 H          0.2107869271        3.5034073992        2.5592482088
 H         -1.5016440079        4.7986232276        0.4000305629
 H         -1.9671666421        4.3518269529        2.0530734275
 O         -2.2320442320        1.9409119327        1.7415674558
 C         -2.6432289613        0.6414328031        1.5094615946
 O         -3.0130419756        0.0332716395        2.5361200724
 O         -2.0996212076        0.5254556436       -2.0758401558
 C         -3.0708624284       -1.3069483396        0.0803338364
 C         -1.8923271818       -2.2314870017        0.2894340679
 C         -2.0372392863       -3.4282575340        0.9825712454
 C         -0.9464355899       -4.2486000379        1.2066643799
 C          0.3145622898       -3.8767036312        0.7757915272
 C          0.4679033211       -2.6854192783        0.0768067266
 C         -0.6370747449       -1.8904381137       -0.1881291067
 H         -0.4969437305       -0.9780278816       -0.7467993312
 N          1.7286587814       -2.2533185926       -0.3672748159
 S          2.0266199483       -0.5884507017       -0.2675101235
 O          1.4215874810       -0.0510753980        0.9297876788
 O          1.6537474699        0.0220543127       -1.5173967760
 C          3.8040402881       -0.5823741804       -0.1195684278
 C          4.3819946768       -0.4245896743        1.1254384589
 C          5.7639341964       -0.4540922931        1.2315719615
 C          6.5393042920       -0.6441106982        0.0976976301
 C          5.9445873948       -0.8000876332       -1.1458053672
 C          4.5638412753       -0.7694146098       -1.2591924564
 H          4.0563071389       -0.8749517797       -2.2038623424
 H          6.5506583992       -0.9443079540       -2.0255395726
 H          7.6141232497       -0.6676293345        0.1833164788
 H          6.2285813275       -0.3289020723        2.1962676098
 H          3.7375695136       -0.2726458234        1.9766330008
 H          2.4897005910       -2.7940640944        0.0211516091
 H          1.1726585959       -4.4986435312        0.9807312264
 H         -1.0734894365       -5.1746698415        1.7463636323
 H         -3.0088370661       -3.7033609611        1.3645121727
 H         -3.7728754118       -1.4815474602        0.9089538063
 C         -3.7764265763       -1.6415473996       -1.2192348150
 C         -4.7890955082       -2.7452630717       -1.2454487175
 C         -5.2312277091       -1.3189602792       -1.3715448472
 H         -5.5792213791       -0.9624483225       -2.3290139488
 H         -5.7303641518       -0.8631734131       -0.5285490260
 H         -4.8348469989       -3.3771034330       -2.1189079119
 H         -5.0019840628       -3.2572717055       -0.3195490700
 H         -3.1468398766       -1.5131890296       -2.0898818888
