  62
        -98.94539685
 C         -2.3236263597       -0.2651832703       -0.3489703416
 C         -1.4565658798        0.6022798007       -1.0566659404
 C         -1.5826396803        2.0330599104       -0.7463210090
 C         -2.4207587908        2.4402083391        0.2227233812
 C         -2.6823603013        3.8626251386        0.6383226125
 C         -1.6478159418        4.4326585179        1.6173994234
 C         -0.2941944717        4.7820693190        0.9989148542
 H         -0.4488403216        5.4040082098        0.1162528948
 H          0.2472095579        5.3834939984        1.7319617050
 C          0.5678492788        3.5674926696        0.6294300833
 H          0.2146464889        2.6789910990        1.1587111223
 H          1.5958896386        3.7350825096        0.9615341138
 C          0.6261078594        3.2549215712       -0.8647572170
 H          1.2411704797        2.3609806415       -0.9879224077
 H          1.1149829493        4.0770070018       -1.3934961060
 C         -0.7372338004        3.0010072014       -1.5209620277
 H         -1.2714261606        3.9438109114       -1.6430143169
 H         -0.5629618199        2.5681345225       -2.5093512581
 H         -2.0729386722        5.3424992374        2.0480294342
 H         -1.5013075118        3.7161189372        2.4292719728
 H         -2.7355252312        4.4987235395       -0.2460648168
 H         -3.6586658515        3.8655605478        1.1281379222
 O         -3.1774877607        1.5691277582        0.9420897600
 C         -3.1516195802        0.2133022184        0.6708584887
 O         -3.9157252702       -0.4635651725        1.3905529877
 H          0.2294306705       -1.2186121895       -0.3068490617
 C         -0.0623413594       -2.0499962002        0.3092813474
 C         -1.3787039993       -2.4845894606        0.2880896465
 C         -1.7372209892       -3.5698381115        1.0778899453
 C         -0.7980885093       -4.1897023021        1.8832586649
 C          0.5006351906       -3.7176486217        1.9413119258
 C          0.8687963905       -2.6307233608        1.1551799771
 N          2.1718597703       -2.1121376305        1.2043466780
 S          2.4455538498       -0.4505659105        1.2875130498
 O          3.3776032194       -0.2779501713        2.3857648903
 O          1.2086628195        0.2819597090        1.3853548201
 C          3.3132069002       -0.1023383087       -0.2311980896
 C          4.6942250201       -0.0577015483       -0.1810976291
 C          5.4067131804        0.1924195031       -1.3419774486
 C          4.7298353008        0.3927428541       -2.5354758286
 C          3.3455567708        0.3428506537       -2.5714718891
 C          2.6258431105        0.0906295523       -1.4126447296
 H          1.5473491005        0.0556379020       -1.4340481200
 H          2.8110229210        0.4992163545       -3.4949511691
 H          5.2815480610        0.5903428852       -3.4410255582
 H          6.4836811404        0.2316328434       -1.3123019782
 H          5.1778373099       -0.2080124491        0.7700683609
 H          2.7756301102       -2.5881262410        1.8594530877
 H          1.2246532205       -4.1803957022        2.5952992656
 H         -1.0856023092       -5.0341615328        2.4913762840
 H         -2.7609244091       -3.9141168818        1.0743908846
 C         -2.3948536692       -1.7691875501       -0.5705888631
 H         -3.3925483192       -2.0737868707       -0.2237503837
 C         -2.2472737286       -2.1817202385       -2.0222712035
 C         -2.8483536181       -3.4762794683       -2.4765372150
 C         -3.4504467583       -2.1753583880       -2.9142458239
 H         -3.3275753281       -1.8648022869       -3.9407238435
 H         -4.3932372586       -1.8769470387       -2.4785652439
 H         -3.3874795881       -4.0627612192       -1.7481171258
 H         -2.3108997577       -4.0649009274       -3.2038290854
 H         -1.3036714986       -1.8826497778       -2.4582428429
 O         -0.6212291194        0.2316702119       -1.9246758505
