  62
        -98.94283598
 C         -2.0329546789       -0.0765129678       -0.9816162239
 C         -2.8678266915        0.9814324115       -0.5449810511
 C         -4.2824696659        0.6377881638       -0.3303291352
 C         -4.7044017983       -0.6192854948       -0.5523039668
 C         -6.1009083588       -1.1135825627       -0.3129323194
 C         -6.2583986499       -1.6689629579        1.1095936070
 C         -5.7247785965       -0.7389049148        2.1992618179
 H         -5.9178165036       -1.2207427963        3.1602519739
 H         -4.6405359958       -0.6537614535        2.0953614889
 C         -6.3463262657        0.6647346614        2.1969058694
 H         -6.5939529168        0.9392041777        3.2245049323
 H         -7.2784673703        0.6559628393        1.6308066983
 C         -5.4317381717        1.7624592621        1.6505162229
 H         -4.4619081970        1.7133222064        2.1517258059
 H         -5.8784814595        2.7296963594        1.8954473490
 C         -5.1934679625        1.7390177660        0.1354580856
 H         -6.1507914482        1.6936014595       -0.3872918149
 H         -4.6966170839        2.6746233836       -0.1367943537
 H         -5.7174219810       -2.6160860603        1.1731567102
 H         -7.3166916823       -1.8700394600        1.2860341187
 H         -6.3111777225       -1.9095310392       -1.0293908607
 H         -6.8024850624       -0.2976117475       -0.4753367971
 O         -3.8787763840       -1.6074415531       -0.9821963088
 C         -2.5350906141       -1.3634035594       -1.2014972453
 O         -1.8955228620       -2.3605536178       -1.5952574660
 O         -2.4770278621        2.1595205729       -0.3328477178
 C         -0.5486103411        0.0904877476       -1.2635253994
 C          0.2852673946        0.0320536599       -0.0056610847
 C          0.0398728445        0.8719143662        1.0761261225
 C          0.8285546802        0.8032946819        2.2096770835
 C          1.8927121608       -0.0794388693        2.2765053913
 C          2.1544331586       -0.9127337753        1.1966928086
 C          1.3434962594       -0.8617543245        0.0709585503
 H          1.5550871125       -1.5260543876       -0.7533143862
 N          3.2471622932       -1.8039723308        1.2120306212
 S          4.4193807290       -1.5863790654        0.0340316656
 O          3.8596397336       -1.8422556104       -1.2674108321
 O          5.5235416630       -2.4265941594        0.4393829144
 C          4.8728276258        0.1323703499        0.1911442249
 C          5.9481037034        0.4656698801        0.9917447312
 C          6.2532122048        1.8035006935        1.1832055667
 C          5.4726016888        2.7810029003        0.5847562134
 C          4.3945547381        2.4300207959       -0.2131772457
 C          4.0884064592        1.0934752690       -0.4155953015
 H          3.2577277157        0.7889099062       -1.0309510131
 H          3.7846513264        3.1890644695       -0.6760837123
 H          5.7050946491        3.8227537144        0.7396614337
 H          7.0931610353        2.0792174828        1.8002771128
 H          6.5275749544       -0.3275988745        1.4359077314
 H          3.6925216967       -1.8820511593        2.1161087139
 H          2.5145490695       -0.1257011222        3.1579265709
 H          0.6207438939        1.4534469170        3.0458167845
 H         -0.7749817989        1.5766288907        1.0185829501
 H         -0.2688167081       -0.7727324576       -1.8832396953
 C         -0.2221136811        1.3538949357       -2.0385637170
 C          1.0108544616        1.3818995806       -2.8888589331
 C         -0.3436540146        1.3474587042       -3.5308227082
 H         -0.7074744952        2.2373400666       -4.0218827833
 H         -0.6611009623        0.4282327898       -4.0023092234
 H          1.5800310155        2.2972821191       -2.9446611042
 H          1.6122575209        0.4847440264       -2.9349529017
 H         -0.5026210327        2.2605624314       -1.5191180536
