  62
        -98.94965406
 C          1.6895690121        1.2231102077        0.3393401332
 C          1.3278526462        0.1582482480       -0.5184770606
 C          1.8942220621       -1.1520112252       -0.1865824948
 C          2.6675066210       -1.2867458750        0.9056955089
 C          3.2880321436       -2.5658907343        1.3986626133
 C          4.6099499902       -2.9305245248        0.7085564559
 C          4.4794859446       -3.4220055019       -0.7336448575
 H          5.4453661803       -3.8461999961       -1.0149537535
 H          3.7450242871       -4.2268776129       -0.7753124763
 C          4.1067945230       -2.3284783934       -1.7442440631
 H          4.2929293076       -1.3469268614       -1.3024609625
 H          4.7488521824       -2.4120003010       -2.6238829803
 C          2.6590778796       -2.3842040354       -2.2317430312
 H          2.4949667283       -3.3091141391       -2.7888136426
 H          2.4943361696       -1.5453289314       -2.9122351761
 C          1.6139628624       -2.2973245061       -1.1116496153
 H          1.5762379197       -3.2328375040       -0.5533989187
 H          0.6335495241       -2.1264617294       -1.5632764112
 H          5.0760899650       -3.7225718394        1.2992328814
 H          5.2701377770       -2.0606461251        0.7396100594
 H          3.4819800746       -2.4248332766        2.4644293924
 H          2.5741593136       -3.3826554667        1.2849142044
 O          2.9675812188       -0.2436996892        1.7256600505
 C          2.4886654869        1.0299373979        1.4639104510
 O          2.8379719256        1.8936952732        2.2964885737
 O          0.5644646557        0.2962410118       -1.5107061831
 C          1.1355808393        2.6126671232        0.0831253868
 C         -0.3714903622        2.5560733015        0.0082146414
 C         -1.1180231425        3.2871633264       -0.9078270527
 C         -2.4973633815        3.1738174815       -0.9397568750
 C         -3.1578775653        2.3157185509       -0.0795553462
 C         -2.4203084013        1.5892093551        0.8477657213
 C         -1.0447463203        1.7373785817        0.9059830335
 H         -0.4882084002        1.1668258389        1.6356777404
 N         -3.0374413299        0.6813728471        1.7350583813
 S         -2.6323192100       -0.9373235915        1.5608348248
 O         -3.4497435346       -1.6330083958        2.5325033579
 O         -1.2080104372       -1.1086076995        1.6853797829
 C         -3.1924861884       -1.3531921747       -0.0817593061
 C         -4.4192397167       -1.9748284444       -0.2205395565
 C         -4.8999063531       -2.2381930998       -1.4926201863
 C         -4.1534962513       -1.8667001411       -2.6010330505
 C         -2.9273073321       -1.2398632127       -2.4440038721
 C         -2.4365946385       -0.9763196932       -1.1736736040
 H         -1.4818045408       -0.4927541913       -1.0332031132
 H         -2.3402695849       -0.9470064301       -3.2997812234
 H         -4.5280035219       -2.0667524613       -3.5925743569
 H         -5.8526029906       -2.7276968608       -1.6154050901
 H         -4.9618110895       -2.2463891230        0.6706802933
 H         -4.0452112674        0.7634573955        1.7608727361
 H         -4.2309740397        2.2051474548       -0.1229179364
 H         -3.0634504245        3.7468874962       -1.6579910424
 H         -0.6178528878        3.9417843897       -1.6027685243
 H          1.4171632147        3.2213055423        0.9553644700
 C          1.7734416802        3.2075483758       -1.1564837894
 C          1.9989648424        4.6852776803       -1.2614248801
 C          3.1614827300        3.7623926399       -1.0565497447
 H          3.8440081922        3.5979078650       -1.8768085240
 H          3.6335961900        3.7369202898       -0.0847993441
 H          1.8875739172        5.1572740387       -2.2259875046
 H          1.6899045284        5.2994261855       -0.4291219212
 H          1.5167161775        2.6611369772       -2.0568684962
