  62
        -98.94593873
 C         -1.5771971032       -1.5593290496       -0.2692346367
 C         -1.4493260149       -0.1909583030       -0.6104901238
 C         -2.7099663646        0.5550691187       -0.7360480503
 C         -3.8772025623       -0.0829071331       -0.5350907094
 C         -5.2265051528        0.5736367351       -0.5640946484
 C         -5.6306474104        1.0697040055        0.8316926528
 C         -4.5458189289        1.8827294341        1.5387419207
 H         -4.9545050072        2.1999578091        2.5007155363
 H         -3.6937137014        1.2327444526        1.7507158182
 C         -4.0622495587        3.1127262978        0.7578483947
 H         -4.7903146903        3.3708971145       -0.0120892115
 H         -4.0020694350        3.9603451448        1.4437303144
 C         -2.6813753397        2.9563604529        0.1178200824
 H         -1.9653853878        2.6071719519        0.8658936849
 H         -2.3515792465        3.9425961551       -0.2183774864
 C         -2.6114048841        2.0123089902       -1.0885046045
 H         -3.3770617547        2.2861814781       -1.8170397171
 H         -1.6283531039        2.1373447040       -1.5510627784
 H         -6.5353322495        1.6728556604        0.7349814643
 H         -5.8665831442        0.2018879532        1.4521605968
 H         -5.2050261151        1.4059749155       -1.2647871971
 H         -5.9597785366       -0.1586443639       -0.9061241909
 O         -3.9586017963       -1.4030207062       -0.2249984458
 C         -2.8145368611       -2.1698905500       -0.0707745341
 O         -3.0283990370       -3.3593386897        0.2411066574
 H          2.2656205908       -1.4167062827       -0.2389081791
 C          1.8151868190       -1.3086566531        0.7326276925
 C          0.5328933615       -1.7713224994        0.9763879468
 C         -0.0003271270       -1.6222060385        2.2551215161
 C          0.7296327588       -1.0183701232        3.2596367934
 C          2.0031237745       -0.5375123661        3.0071305908
 C          2.5449630803       -0.6852684258        1.7365970206
 N          3.8376476893       -0.2220717377        1.4562711017
 S          4.2266228562        0.4000948511       -0.0421865054
 O          4.3604648188       -0.6648645216       -1.0050374741
 O          5.4306659047        1.1683452121        0.2041241269
 C          2.9169883226        1.5129290801       -0.5181787163
 C          2.4401373341        2.4197895233        0.4061569849
 C          1.4722295781        3.3285070773        0.0138445191
 C          1.0084049650        3.3234840284       -1.2915672199
 C          1.4967848869        2.4067724968       -2.2071186580
 C          2.4583461830        1.4897801084       -1.8177229241
 H          2.8551436142        0.7508735121       -2.4960199530
 H          1.1248064893        2.3948076480       -3.2195522493
 H          0.2558530338        4.0347900307       -1.5950922229
 H          1.0791208466        4.0354975039        0.7271806055
 H          2.8218198391        2.4088099107        1.4144908653
 H          4.2830951783        0.2910150513        2.2023252536
 H          2.5733175960       -0.0567571909        3.7873956089
 H          0.3028140004       -0.9116094552        4.2456001686
 H         -1.0015845346       -1.9854652658        2.4457480292
 C         -0.3270349140       -2.4030839427       -0.0903898834
 H         -0.6653680336       -3.3842521716        0.2721634945
 C          0.3819515720       -2.5886101383       -1.4146585883
 C          1.3043777943       -3.7522550617       -1.6129807387
 C         -0.0219315772       -3.7189443513       -2.3103238261
 H         -0.0413511426       -3.5507345915       -3.3766741444
 H         -0.8029268436       -4.3774019557       -1.9582192291
 H          2.2013112533       -3.6049801029       -2.1958811372
 H          1.4261944631       -4.4382398610       -0.7881800454
 H          0.6417696454       -1.6480459775       -1.8871042975
 O         -0.3450681003        0.3791893683       -0.7982638759
