  62
        -98.93745529
 C         -2.4667572747       -1.1642780497        0.0094644032
 C         -3.4249178093       -0.6709595144        0.9329028535
 C         -4.4070857158        0.3017260294        0.4262944835
 C         -4.3564879344        0.6595419361       -0.8681439725
 C         -5.2179668277        1.6656917439       -1.5798600454
 C         -4.5526592777        3.0526373761       -1.5740154810
 C         -4.8616702321        3.9103526830       -0.3475875197
 H         -5.9026300852        4.2372814135       -0.3919716264
 H         -4.2350143740        4.8030175503       -0.4094157921
 C         -4.6189606851        3.2319962872        1.0031769486
 H         -4.5102142621        4.0149868622        1.7561033477
 H         -3.6777952604        2.6796933919        0.9739444385
 C         -5.7616378728        2.2950663116        1.4221913006
 H         -6.6206635369        2.4674377118        0.7741236848
 H         -6.0830457024        2.5468614792        2.4349662453
 C         -5.4113899672        0.8003102229        1.4294409977
 H         -6.3320889119        0.2175372353        1.3189289151
 H         -4.9878877769        0.5305723912        2.4019440531
 H         -4.8782245085        3.6007598029       -2.4605341141
 H         -3.4726557898        2.9064385550       -1.6587809588
 H         -6.2105371058        1.7032579309       -1.1410879371
 H         -5.3031037095        1.3250354296       -2.6139140437
 O         -3.4274058465        0.1573988266       -1.7249472570
 C         -2.4637715816       -0.7511055050       -1.3221991662
 O         -1.6935950967       -1.0921842946       -2.2438870876
 O         -3.4579883932       -1.0327381233        2.1396000009
 C         -1.4616134666       -2.1695666893        0.5465923743
 C         -0.1240762296       -1.5273764280        0.8307041369
 C          0.3768058322       -1.4725345090        2.1261914370
 C          1.6100588630       -0.8986384316        2.3810911322
 C          2.3652976513       -0.3635385790        1.3530975744
 C          1.8728626301       -0.4107606522        0.0552970559
 C          0.6402935745       -0.9959481543       -0.1983835930
 H          0.2596753902       -1.0246881244       -1.2087955894
 N          2.6157961661        0.1562346876       -0.9946075486
 S          4.2334257471       -0.2622338459       -1.1466292825
 O          4.5591128866       -0.0279755446       -2.5364397521
 O          4.4876903070       -1.5923540341       -0.6430702512
 C          5.0807208283        0.9411239503       -0.1438612562
 C          4.8370482147        2.2786661921       -0.3872015201
 C          5.4966969918        3.2284838623        0.3762482686
 C          6.3863071881        2.8273006108        1.3619796303
 C          6.6226721762        1.4806311814        1.5915954372
 C          5.9650849490        0.5252818883        0.8321220832
 H          6.1122438393       -0.5328318622        0.9789353914
 H          7.3145492780        1.1708856226        2.3582466396
 H          6.8980919955        3.5690312842        1.9546231102
 H          5.3148507432        4.2766405893        0.2009305620
 H          4.1401938154        2.5481672372       -1.1634123439
 H          2.1460883290        0.1068556026       -1.8874879535
 H          3.3252863713        0.0869030140        1.5456738941
 H          1.9865491440       -0.8641421843        3.3919754285
 H         -0.2133633263       -1.8751163194        2.9365032647
 H         -1.8798357620       -2.5031506682        1.5057298427
 C         -1.2941217064       -3.3830646511       -0.3477059878
 C         -0.7596100901       -4.6517451616        0.2430753013
 C         -2.1995759473       -4.5619073859       -0.1629067525
 H         -2.5259968288       -5.1021905067       -1.0388448568
 H         -2.9460306485       -4.5010537211        0.6156273807
 H         -0.0919048285       -5.2552532514       -0.3525553878
 H         -0.5295945637       -4.6534925170        1.2977491845
 H         -1.0012826469       -3.1370561295       -1.3602787318
