  62
        -98.94101699
 C         -2.1102762873       -1.0456284773       -0.6603212730
 C         -3.4487233721       -0.8843004170       -0.2207077853
 C         -4.0549287694        0.4274212314       -0.4687281334
 C         -3.3364693249        1.3897938950       -1.0751530319
 C         -3.8167691800        2.7762533866       -1.4080228944
 C         -3.7071724199        3.7693220661       -0.2427773093
 C         -4.7234074607        3.5671234364        0.8818991260
 H         -4.6783542328        4.4540744747        1.5169797511
 H         -5.7274513098        3.5198229140        0.4590934318
 C         -4.4693405831        2.3267592363        1.7501310322
 H         -3.4433476070        1.9804693129        1.6012819082
 H         -4.5631568304        2.5953254208        2.8048948228
 C         -5.4284165163        1.1644528410        1.4919025549
 H         -5.1321417501        0.3287545044        2.1309961042
 H         -6.4429022778        1.4581887736        1.7702879678
 C         -5.4440526340        0.6683939609        0.0401588138
 H         -5.9794114840       -0.2836684004        0.0094861206
 H         -5.9640134299        1.3837750954       -0.5963985787
 H         -2.6953913112        3.7175343674        0.1670190308
 H         -3.8479178286        4.7715328093       -0.6541913868
 H         -3.1883456066        3.1352536793       -2.2258022982
 H         -4.8494399884        2.7331970791       -1.7552079725
 O         -2.0557043858        1.1961433730       -1.4848388486
 C         -1.4022341437       -0.0100016080       -1.2711441783
 O         -0.2260713934       -0.0225291896       -1.6829467671
 O         -4.1057543486       -1.7964320333        0.3473220649
 C         -1.4232264657       -2.3733399559       -0.3807294690
 C         -0.3518664995       -2.1053075911        0.6459585772
 C         -0.7062602582       -1.9855911844        1.9871760729
 C          0.2271571158       -1.6123957942        2.9366402378
 C          1.5304681473       -1.3329269044        2.5644053844
 C          1.8895808400       -1.4471932881        1.2292590415
 C          0.9614002141       -1.8544045912        0.2819551167
 H          1.2557125438       -1.9242086150       -0.7531147976
 N          3.2039801117       -1.1140899353        0.8477131191
 S          3.6805763530        0.4550190348        1.2753066492
 O          4.5984282111        0.3552332254        2.3859572336
 O          2.5192036792        1.2831298646        1.5037722217
 C          4.5488577847        0.9977916444       -0.1841464603
 C          3.7998289504        1.2689620095       -1.3147162278
 C          4.4545635773        1.6773125984       -2.4660147053
 C          5.8361202725        1.8044765750       -2.4679589508
 C          6.5719264044        1.5263424343       -1.3261597123
 C          5.9247031264        1.1177526610       -0.1703371152
 H          6.4515227591        0.8918082883        0.7421875417
 H          7.6452300320        1.6262418654       -1.3325213497
 H          6.3400238141        2.1227700977       -3.3668764823
 H          3.8817971489        1.8919272407       -3.3541478639
 H          2.7252542831        1.1616264873       -1.2765627233
 H          3.3528187832       -1.2641522780       -0.1414916769
 H          2.2679605594       -1.0009146212        3.2791220175
 H         -0.0650465280       -1.5220166120        3.9722834338
 H         -1.7335943174       -2.1656860777        2.2729949578
 H         -2.1923835781       -3.0097434687        0.0764633928
 C         -0.9218414952       -3.0392942293       -1.6441336861
 C         -0.5059068323       -4.4785373552       -1.5984365002
 C         -1.7665255524       -4.0847327803       -2.3059736307
 H         -1.7867116517       -4.1218968239       -3.3847978988
 H         -2.7113498214       -4.3297303356       -1.8436799922
 H          0.3405261834       -4.7908007524       -2.1906646437
 H         -0.5936886739       -4.9902731739       -0.6520642901
 H         -0.3690642204       -2.3704617884       -2.2924853153
