  62
        -98.94627548
 C         -1.8107592335       -1.0372937923       -0.2987000169
 C         -3.1673121583       -1.3019374166        0.0066167439
 C         -4.1262895570       -0.2700915144       -0.4032898878
 C         -3.6902726947        0.8299348339       -1.0441580299
 C         -4.5487650677        1.9583267364       -1.5481342558
 C         -4.8860938068        3.0112220907       -0.4833710654
 C         -5.8979219392        2.5670173715        0.5736645423
 H         -6.2046887567        3.4614160948        1.1196001150
 H         -6.7846833835        2.1669880421        0.0810258604
 C         -5.3557427786        1.5390499121        1.5765678636
 H         -4.2639579270        1.5344347136        1.5384361083
 H         -5.6393795916        1.8335364267        2.5895170146
 C         -5.8642945419        0.1136358131        1.3606780683
 H         -6.9434160789        0.0801825304        1.5261223007
 H         -5.3905302193       -0.5358154705        2.1013208843
 C         -5.5660036116       -0.4591528944       -0.0311944398
 H         -5.7652693382       -1.5334473142       -0.0100296411
 H         -6.2155582087        0.0018627551       -0.7749696914
 H         -3.9604527111        3.3219013534        0.0064268134
 H         -5.2950151058        3.8804375493       -1.0035876638
 H         -3.9846414515        2.4446368775       -2.3468590111
 H         -5.4708310657        1.5569300827       -1.9695136787
 O         -2.3781927919        1.0389225768       -1.3332892330
 C         -1.4061988343        0.1231366123       -0.9569810560
 O         -0.2454809703        0.4533113637       -1.2638904451
 H          2.0045690332       -2.0088081477       -0.1743461362
 C          1.6446608122       -1.4861113476        0.6952563441
 C          0.2887824437       -1.4117164955        0.9705599736
 C         -0.1228835364       -0.7238549407        2.1104348143
 C          0.7967360187       -0.1150152003        2.9411023201
 C          2.1491562952       -0.1721875722        2.6495554825
 C          2.5716132534       -0.8616782034        1.5206731493
 N          3.9412938746       -0.9637188436        1.2118982763
 S          4.5045677751       -0.4589992117       -0.2820991858
 O          3.8618673473       -1.2068649476       -1.3302126167
 O          5.9426187115       -0.5921007659       -0.1917564187
 C          4.0776191632        1.2710870933       -0.3671174984
 C          2.7786535707        1.6405396206       -0.6530599535
 C          2.4575899705        2.9898334009       -0.6513446660
 C          3.4275212635        3.9380810688       -0.3668730464
 C          4.7277266997        3.5482790838       -0.0814338214
 C          5.0561939692        2.2028742210       -0.0760192638
 H          6.0536833417        1.8531763350        0.1364001310
 H          5.4822408175        4.2866611929        0.1375156897
 H          3.1680565336        4.9851675677       -0.3693288809
 H          1.4427806395        3.2795018141       -0.8741922816
 H          2.0298602137        0.8966939293       -0.8759860911
 H          4.5473893457       -0.5974451670        1.9331085558
 H          2.8703413184        0.3085862418        3.2930897981
 H          0.4602016094        0.4143397626        3.8196979304
 H         -1.1801454099       -0.6735624177        2.3337059462
 C         -0.7561822738       -2.0554681482        0.0942914206
 H         -1.2879664505       -2.8116162080        0.6912532720
 C         -0.1870418910       -2.7267239668       -1.1377509459
 C          0.3612689265       -4.1185834696       -1.0506316758
 C         -0.9364642197       -3.8668366363       -1.7563379887
 H         -0.9632510688       -3.9428630519       -2.8330692341
 H         -1.8512488900       -4.1781532745       -1.2732605016
 H          1.2306569564       -4.3653032470       -1.6416622654
 H          0.3289678573       -4.6088053826       -0.0892884521
 H          0.3027926101       -2.0297401269       -1.8097708328
 O         -3.5557440785       -2.3465494883        0.5946992452
