  62
        -98.94752599
 C         -1.3391468402       -1.6248623772       -0.5024538219
 C         -1.1933420193       -0.3150510044       -1.0244644508
 C         -2.3788009533        0.5518301397       -0.9246301798
 C         -3.5117439729        0.0742543457       -0.3813847326
 C         -4.7791917422        0.8565811354       -0.1954143540
 C         -4.8295141124        1.5238515846        1.1852653452
 C         -3.5626414612        2.3018488740        1.5417685330
 H         -2.7286976427        1.6052851787        1.6616058627
 H         -3.7289682334        2.7676075554        2.5159304771
 C         -3.1699793078        3.3785366954        0.5210597698
 H         -2.8923494477        4.2858160999        1.0621362847
 H         -4.0256668792        3.6244066718       -0.1096439654
 C         -1.9753132600        3.0033997273       -0.3584008491
 H         -1.1630965572        2.6404646274        0.2781385427
 H         -1.6279622982        3.9120989352       -0.8595705764
 C         -2.2483753873        1.9552498457       -1.4456031688
 H         -1.3886277163        1.9435706304       -2.1219412125
 H         -3.1344001362        2.2401320448       -2.0174897294
 H         -4.9785245068        0.7487661432        1.9406087137
 H         -5.6896478418        2.1956310834        1.2130426663
 H         -4.8521619465        1.6099189144       -0.9773328971
 H         -5.6216526235        0.1685115096       -0.2862792005
 O         -3.6211358228       -1.1912909725        0.0970567662
 C         -2.5407944165       -2.0550351224        0.0685465847
 O         -2.7759519335       -3.1772286133        0.5627521243
 H          1.2492798500       -0.4514596450        0.0258201502
 C          1.3821369074       -1.2005290830        0.7880218996
 C          0.7007336665       -2.4045091423        0.6871786789
 C          0.8730782867       -3.3561654699        1.6854229624
 C          1.7018380860       -3.0990555843        2.7635374608
 C          2.3593370807       -1.8868450820        2.8739870172
 C          2.1914753230       -0.9289761724        1.8801447959
 N          2.8492279076        0.3071714782        1.9421215985
 S          2.1030759837        1.6782583617        1.3316164764
 O          2.8056629911        2.7763549029        1.9682273891
 O          0.6759373611        1.6508538203        1.5559816313
 C          2.4993225395        1.7020783888       -0.4038627438
 C          1.7674266747        2.5386209420       -1.2206617799
 C          2.0817147369        2.6059204825       -2.5679291634
 C          3.1209779301        1.8414358398       -3.0727280347
 C          3.8520736631        1.0121988112       -2.2370367524
 C          3.5436423030        0.9411618568       -0.8880020012
 H          4.0866862079        0.2957153066       -0.2175951507
 H          4.6581281361        0.4146859091       -2.6322990001
 H          3.3585254953        1.8889140498       -4.1240428591
 H          1.5093362448        3.2479226564       -3.2185622869
 H          0.9581369448        3.1077908916       -0.7931411201
 H          3.3484687484        0.4956380327        2.7986714912
 H          2.9926146062       -1.6793284695        3.7232183492
 H          1.8274836472       -3.8451841497        3.5336053065
 H          0.3383394516       -4.2926469092        1.6214775652
 C         -0.2175272136       -2.6541988045       -0.4849190200
 H         -0.7076774537       -3.6246031124       -0.3272248744
 C          0.5678608853       -2.7171554537       -1.7807440178
 C          1.3382555268       -3.9613928267       -2.1007652421
 C          0.1017612034       -3.6239604369       -2.8777664936
 H          0.2055552057       -3.2904739356       -3.8991813417
 H         -0.7894155736       -4.2083148913       -2.6986210862
 H          1.2855600372       -4.7781411022       -1.3967594833
 H          2.2951004151       -3.8619703605       -2.5892667398
 H          0.9978081620       -1.7673355331       -2.0689876430
 O         -0.1462278767        0.1292376089       -1.5649663652
