  62
        -98.94301873
 C         -2.6902330685       -1.2187873824        0.1241275218
 C         -2.6543426401       -0.2156541907       -0.8741997422
 C         -3.8109820108        0.6882660988       -0.9061257928
 C         -4.8271817406        0.5077212346       -0.0431415200
 C         -6.0814244318        1.3355010293        0.0330322364
 C         -5.9313009916        2.6181811286        0.8627078790
 C         -5.1016657651        3.7238175814        0.2084744916
 H         -5.4812813956        3.9152457372       -0.7956366243
 H         -5.2593526174        4.6312895760        0.7947664498
 C         -3.5955907822        3.4328751394        0.1450604519
 H         -3.3493940524        2.6288747401        0.8425544690
 H         -3.0400145441        4.3160664682        0.4680258014
 C         -3.0793145041        3.0566192965       -1.2438468730
 H         -2.0128953649        2.8305529320       -1.1628839308
 H         -3.1946440848        3.9063705831       -1.9203372606
 C         -3.7745342094        1.8386293162       -1.8660875823
 H         -4.7822236709        2.1018722686       -2.1866300649
 H         -3.1985168536        1.5241045166       -2.7397150475
 H         -5.4945535727        2.3588871208        1.8299680426
 H         -6.9357339433        3.0069962342        1.0455490773
 H         -6.8403826659        0.7075068070        0.5046328868
 H         -6.4160130000        1.5883883452       -0.9733638039
 O         -4.8374717009       -0.4922385069        0.8789625206
 C         -3.7629702737       -1.3579318830        1.0042113049
 O         -3.8810451331       -2.1962414018        1.9213829925
 O         -1.7118170203       -0.0806597646       -1.6965437764
 C         -1.5234009510       -2.1789615984        0.2728755398
 C         -0.2588578202       -1.3952973415        0.5298756045
 C         -0.2356043212       -0.5031372412        1.5994192184
 C          0.8928966770        0.2441828313        1.8725381087
 C          2.0246223769        0.1229418925        1.0841296615
 C          2.0174068854       -0.7710800187        0.0234164051
 C          0.8823379111       -1.5293640073       -0.2429077147
 H          0.8932412147       -2.2170748682       -1.0738893154
 N          3.1495293813       -0.8895194703       -0.7940016013
 S          4.6827890570       -0.8913673210       -0.1265936737
 O          5.5197356129       -1.5309022632       -1.1180999344
 O          4.6894696168       -1.4813282219        1.1919704224
 C          5.1154529860        0.8331170304       -0.0270075210
 C          4.9330270190        1.6203826967       -1.1470155868
 C          5.2801371436        2.9604831356       -1.0864389702
 C          5.8053089137        3.4871186057        0.0842696254
 C          5.9863819788        2.6827323500        1.1987815960
 C          5.6393867871        1.3416807922        1.1453027874
 H          5.7555417145        0.6810013001        1.9897760762
 H          6.3946034093        3.0939248320        2.1080486859
 H          6.0739475756        4.5308043785        0.1282259592
 H          5.1389090269        3.5894253667       -1.9507069285
 H          4.5217987153        1.1758325816       -2.0379720132
 H          3.0596336728       -1.5585976193       -1.5437443161
 H          2.9065667109        0.7071632594        1.2894485058
 H          0.8927858783        0.9330615251        2.7038185021
 H         -1.1216980443       -0.4039793484        2.2124787872
 H         -1.7365547858       -2.7823110618        1.1672398320
 C         -1.4463489708       -3.0994763056       -0.9268223889
 C         -0.8023184154       -4.4467409595       -0.8004979962
 C         -2.2900455149       -4.3369826959       -0.9442077298
 H         -2.7427196061       -4.6397620867       -1.8764650407
 H         -2.9059035724       -4.5292513166       -0.0776287615
 H         -0.2352254160       -4.8303282156       -1.6355867813
 H         -0.4045096751       -4.7221245598        0.1647720248
 H         -1.3324509417       -2.5607717542       -1.8605859787
