  62
        -98.93921631
 C          2.1248785734        1.0255172728        0.0646692019
 C          2.8770928153        0.3419408564        1.0449866027
 C          3.6287694113       -0.8485100542        0.6022533788
 C          3.5238322388       -1.2372380480       -0.6824108854
 C          4.2155569902       -2.3881088331       -1.3630732851
 C          5.6922704135       -2.0913157704       -1.6742942894
 C          6.4598419781       -1.3932278024       -0.5543201020
 H          7.4467401654       -1.1292995494       -0.9433272116
 H          5.9524846139       -0.4608985856       -0.2997011950
 C          6.6642852604       -2.2231459534        0.7107733870
 H          7.2812088586       -1.6312238282        1.3916583376
 H          7.2220819313       -3.1278789074        0.4588334653
 C          5.3922699416       -2.6318083819        1.4556115775
 H          5.6968453368       -3.0131023547        2.4347643164
 H          4.8890170431       -3.4510737532        0.9491226970
 C          4.4125512459       -1.4927360327        1.7207918922
 H          3.6644708734       -1.8396969747        2.4444447102
 H          4.9416804563       -0.6757948694        2.2245067319
 H          5.7260096418       -1.4434781037       -2.5535104284
 H          6.1865147303       -3.0304888907       -1.9281059702
 H          3.6881729688       -2.5576548817       -2.3045601667
 H          4.1167810208       -3.2884919142       -0.7636550190
 O          2.7574363591       -0.5640216312       -1.5881947214
 C          2.0445336709        0.5723019202       -1.2516085427
 O          1.3957243384        1.0732359586       -2.1891370989
 O          2.9238344523        0.7069402417        2.2521631902
 C          1.3396984422        2.2621978874        0.4628689079
 C         -0.1316333585        2.0301040440        0.2212741323
 C         -0.9482962615        2.9154441140       -0.4687442718
 C         -2.2850495364        2.6194453014       -0.6750621795
 C         -2.8372306239        1.4472109053       -0.1934132788
 C         -2.0312269469        0.5581356005        0.5060778937
 C         -0.6943311537        0.8576465544        0.7118799585
 H         -0.0658179021        0.1597233738        1.2525895078
 N         -2.5861855774       -0.6319717765        1.0138467351
 S         -3.4048975574       -1.6269853368       -0.0661584481
 O         -3.3251554995       -2.9520747311        0.5109105635
 O         -2.9028448560       -1.4813329571       -1.4129505110
 C         -5.0889473248       -1.0559678226        0.0277776462
 C         -5.6966960910       -1.0179107242        1.2676265689
 C         -7.0096768181       -0.5837872844        1.3553449415
 C         -7.6897966459       -0.2010277600        0.2086214217
 C         -7.0664948595       -0.2482953177       -1.0289091710
 C         -5.7524750715       -0.6801796676       -1.1236543660
 H         -5.2238284323       -0.7275769571       -2.0625098713
 H         -7.5963903254        0.0491028681       -1.9195714531
 H         -8.7116648614        0.1365363623        0.2798570828
 H         -7.4976252095       -0.5451347524        2.3158899221
 H         -5.1339312696       -1.3271658682        2.1324640913
 H         -1.9313179395       -1.1773440571        1.5564558444
 H         -3.8755202511        1.2104129557       -0.3590910553
 H         -2.9058310688        3.3127570441       -1.2216593775
 H         -0.5363627600        3.8320199586       -0.8573391683
 H          1.4960550192        2.3709805242        1.5465925195
 C          1.8884767736        3.4883631385       -0.2348058612
 C          1.7559140233        4.8395220027        0.3999982163
 C          3.0938909755        4.1679248796        0.3401312278
 H          3.8390701705        4.5560902344       -0.3378652526
 H          3.5047428965        3.7594861621        1.2519974006
 H          1.5843604091        5.6939758427       -0.2369110856
 H          1.2598431073        4.8946569265        1.3570402810
 H          1.8219121990        3.4170376294       -1.3146793852
