  62
        -98.94374625
 C          1.7145282015        0.4095457931        0.6227409749
 C          2.9437552744        0.3039232594        1.3159981612
 C          4.1457998422        0.6177862567        0.5356284194
 C          4.0265425636        0.9954420501       -0.7504247835
 C          5.1570304270        1.3660364401       -1.6718608920
 C          5.8327068438        0.1634559139       -2.3450031109
 C          6.7114538428       -0.6871221323       -1.4269724149
 H          7.2892395623       -1.3568841182       -2.0670483969
 H          7.4207507175       -0.0435363316       -0.9055898490
 C          5.9325715174       -1.5302038620       -0.4076050398
 H          6.3310175875       -2.5473175843       -0.3953673801
 H          4.8868765757       -1.6003996987       -0.7163594774
 C          5.9908910765       -1.0036480565        1.0264497104
 H          7.0185283848       -1.0527550145        1.3933596266
 H          5.3780888675       -1.6543003134        1.6557792058
 C          5.4803232770        0.4337286743        1.1930103695
 H          5.3555799523        0.6317763201        2.2604472638
 H          6.2054254797        1.1395820851        0.7886796862
 H          6.4576652647        0.5508498041       -3.1529552083
 H          5.0600731923       -0.4646704151       -2.7944331556
 H          5.9020188989        1.9446457847       -1.1251094844
 H          4.7272795008        1.9990470038       -2.4510530184
 O          2.8238919560        1.1035367119       -1.3746524541
 C          1.6419334261        0.7929609526       -0.7165908022
 O          0.6201363009        0.9041607561       -1.4188031345
 O          3.0319459426       -0.0387893737        2.5258829940
 C          0.4269073846        0.0738439219        1.3533288414
 C         -0.2672577314       -1.0713273503        0.6591645422
 C          0.4505084586       -2.2393478950        0.4108692327
 C         -0.1377313795       -3.3038260942       -0.2425400777
 C         -1.4562149694       -3.2299962020       -0.6578872799
 C         -2.1834751111       -2.0726716299       -0.4102165946
 C         -1.5886436221       -1.0051090162        0.2497948085
 H         -2.1695347047       -0.1191106789        0.4383167481
 N         -3.5066355934       -1.9554940003       -0.8512902903
 S         -4.6323428201       -1.0476643795       -0.0214246151
 O         -4.4849291060       -1.1886265364        1.4086468159
 O         -5.9048053196       -1.4710577919       -0.5667779228
 C         -4.3219917739        0.6367046980       -0.5070940681
 C         -4.4826753685        1.6382424452        0.4299472950
 C         -4.2644420364        2.9532618894        0.0515820306
 C         -3.8941408448        3.2423701257       -1.2526098937
 C         -3.7434143061        2.2257246080       -2.1830827527
 C         -3.9615566456        0.9089068594       -1.8113979910
 H         -3.8433619715        0.0963010476       -2.5085378529
 H         -3.4499718222        2.4539949249       -3.1950572062
 H         -3.7190911344        4.2658370616       -1.5449577193
 H         -4.3805082651        3.7458499501        0.7737549934
 H         -4.7625689034        1.3654379304        1.4353712958
 H         -3.9039244512       -2.7806463888       -1.2740831646
 H         -1.9160307003       -4.0589423757       -1.1741143545
 H          0.4322266550       -4.2014911112       -0.4303465454
 H          1.4810734772       -2.2970065552        0.7344549126
 H          0.7373292641       -0.2687320575        2.3518136382
 C         -0.4350219387        1.3085874866        1.5084478738
 C         -1.4235092149        1.3996061925        2.6309824962
 C         -0.1786315827        2.2329449933        2.6592786241
 H         -0.2658065144        3.2963265848        2.4954462491
 H          0.6061489587        1.9601094578        3.3496550002
 H         -2.3664874507        1.8909478421        2.4462685157
 H         -1.4935706567        0.5592770581        3.3052303397
 H         -0.6998896047        1.7557921436        0.5565486531
