  62
        -98.94121147
 C         -2.6796495167       -0.2738313320       -0.4951984711
 C         -2.9967337517        0.6561444337        0.5307965854
 C         -2.6556100635        2.0569514063        0.2733573341
 C         -2.1033122882        2.3991898564       -0.9041184245
 C         -1.6644824231        3.7783676617       -1.3120576169
 C         -0.2571075176        4.1333194853       -0.8113613984
 C         -0.1620784942        4.4449990169        0.6828956452
 H          0.8104658596        4.9116020895        0.8512864823
 H         -0.9271582949        5.1739211317        0.9536131353
 C         -0.2756475803        3.2127459549        1.5919023009
 H         -0.0785855528        2.3080797441        1.0093243835
 H          0.4993442273        3.2544627265        2.3616672947
 C         -1.6176360380        3.0726722392        2.3122755796
 H         -1.5995480231        2.1386099509        2.8802355495
 H         -1.7384355758        3.8963036014        3.0200753341
 C         -2.8410450586        3.0426017194        1.3867091974
 H         -3.7056568122        2.7233832229        1.9739706159
 H         -3.0353137430        4.0373033307        0.9864919715
 H          0.4168467064        3.3051587692       -1.0466221217
 H          0.0784963738        5.0111648214       -1.3686825847
 H         -1.6584688213        3.7952490693       -2.4039362750
 H         -2.3806977276        4.5183179894       -0.9541327994
 O         -1.8785972765        1.4939644346       -1.8887854079
 C         -2.0904313319        0.1371230082       -1.6906841351
 O         -1.7230560861       -0.5612268152       -2.6592399430
 O         -3.5350152803        0.3203615508        1.6197963461
 C         -2.8687493156       -1.7406906746       -0.1375559606
 C         -1.5977302940       -2.1984084964        0.5405740000
 C         -1.5948655061       -2.7073070525        1.8330121657
 C         -0.4023409900       -2.9889645259        2.4787884406
 C          0.8101748384       -2.7455599679        1.8581239002
 C          0.8131309347       -2.2529155985        0.5615940434
 C         -0.3794460370       -2.0082355009       -0.0962892459
 H         -0.3587083235       -1.6090623446       -1.1004775581
 N          2.0529750842       -1.9026566471       -0.0493928060
 S          2.4248790639       -0.2926389977        0.3495212298
 O          2.3695777524       -0.1691514004        1.7836749688
 O          1.5935198710        0.6192027811       -0.4084399580
 C          4.1161458568       -0.1882748551       -0.2041163968
 C          5.1043406411       -0.7204083142        0.6014398341
 C          6.4174953093       -0.6870244239        0.1609396899
 C          6.7184488440       -0.1273398832       -1.0720444515
 C          5.7156161561        0.4028729561       -1.8692926994
 C          4.3995747472        0.3712063265       -1.4345233914
 H          3.5883446615        0.7768979582       -2.0183835465
 H          5.9515968527        0.8393054736       -2.8265485601
 H          7.7411277394       -0.1023777162       -1.4137372607
 H          7.2003713222       -1.0968310167        0.7784272552
 H          4.8220019971       -1.1370662584        1.5538094262
 H          1.9692067120       -1.9328212515       -1.0591596876
 H          1.7460429540       -2.9064698038        2.3668868107
 H         -0.4181522755       -3.3744846357        3.4868630215
 H         -2.5347763613       -2.8470857818        2.3465249504
 H         -3.6740048069       -1.7637622379        0.6092508920
 C         -3.2503972930       -2.6471351471       -1.2875359581
 C         -3.9247322823       -3.9513645241       -0.9870360112
 C         -4.6979470853       -2.8367053319       -1.6235033603
 H         -4.9751984002       -2.9236827126       -2.6630328315
 H         -5.4231483718       -2.3093893102       -1.0211476141
 H         -3.6711578474       -4.8103824973       -1.5886802743
 H         -4.1290671832       -4.1826686882        0.0472607373
 H         -2.5502896455       -2.6187230953       -2.1116781998
