  62
        -98.94385135
 C         -1.2925423120       -1.4263956271        0.6164360104
 C         -2.0817592086       -1.0204642485       -0.4884326387
 C         -3.1062924792       -0.0034712543       -0.2062674240
 C         -3.2278828213        0.4917342678        1.0376031700
 C         -4.1955801159        1.5629885630        1.4470175016
 C         -3.5626926896        2.9572917746        1.3425126354
 C         -2.8647384675        3.2294343397        0.0092004607
 H         -2.5074660769        4.2617844965        0.0378756811
 H         -1.9750804876        2.5987788091       -0.0715970575
 C         -3.7525909329        3.0325448508       -1.2275935811
 H         -3.5801182125        3.8654585357       -1.9126442614
 H         -4.8037714367        3.0632393981       -0.9370541196
 C         -3.4789332901        1.7486957980       -2.0134780540
 H         -3.9790294378        1.8305934063       -2.9824772512
 H         -2.4055287095        1.6621001634       -2.2040612602
 C         -3.9594072934        0.4480085460       -1.3573613107
 H         -5.0024425904        0.5520777435       -1.0514373448
 H         -3.8967035665       -0.3452767181       -2.1080656430
 H         -2.8216679705        3.0642043000        2.1383370939
 H         -4.3445385705        3.7024740852        1.5031313781
 H         -5.0804300753        1.5062286129        0.8159746520
 H         -4.4872228769        1.3848598219        2.4837849923
 O         -2.4398851410        0.0947608670        2.0690437935
 C         -1.4307134938       -0.8343562199        1.8734962598
 O         -0.7295982998       -1.0463222820        2.8843452519
 H          0.5962073600        0.0649926742       -0.1096382686
 C          1.0245878291       -0.6263220235       -0.8182539724
 C          0.7185021399       -1.9767046629       -0.7168106022
 C          1.2423857611       -2.8445294846       -1.6653671638
 C          2.0414892414       -2.3586843958       -2.6870082175
 C          2.3476619160       -1.0131202167       -2.7789523431
 C          1.8240625275       -0.1360022285       -1.8352864078
 N          2.0859443015        1.2403280897       -1.8883470298
 S          2.1309760724        2.1417757181       -0.4844848209
 O          0.8017973290        2.3412254640        0.0365819290
 O          2.8467782209        3.3428471178       -0.8593811036
 C          3.1251684559        1.1813224038        0.6441846128
 C          4.4590916577        1.0122445551        0.3248386887
 C          5.2558847293        0.2360672544        1.1494492990
 C          4.7070788601       -0.3616833736        2.2743033260
 C          3.3695117767       -0.1770023475        2.5860147512
 C          2.5684593790        0.6026407727        1.7658809495
 H          1.5233371723        0.7559179240        1.9880844136
 H          2.9332074735       -0.6389386668        3.4576112227
 H          5.3239575827       -0.9726445468        2.9141168420
 H          6.2981309688        0.0959487515        0.9125610081
 H          4.8512362775        1.5012956533       -0.5519429696
 H          2.7775561005        1.5299821837       -2.5628179795
 H          2.9687961144       -0.6403016607       -3.5786121149
 H          2.4349991225       -3.0417376759       -3.4244431732
 H          1.0104042108       -3.8958282978       -1.6207567076
 C         -0.1386765983       -2.4010772503        0.4524797264
 H          0.4701484788       -2.2643604726        1.3628197273
 C         -0.5365160374       -3.8696710918        0.4205680515
 C         -1.8683422071       -4.3271192339        0.9345863031
 C         -1.5651958840       -4.4008849211       -0.5302900856
 H         -1.4022359217       -5.3741936727       -0.9698792173
 H         -2.0405568601       -3.6930758063       -1.1900755732
 H         -1.9105063603       -5.2447226882        1.5024039322
 H         -2.5608734886       -3.5704281472        1.2749964010
 H          0.3037901345       -4.5214258818        0.6388642984
 O         -1.9465005271       -1.4720890568       -1.6546943670
