  62
        -98.94379202
 C         -1.6391966761       -1.4240401969        0.3965521854
 C         -1.7704081371       -0.1822387315        1.0738480623
 C         -3.0448455354        0.5225530566        0.9039772903
 C         -4.0238960727       -0.0415954160        0.1744791743
 C         -5.4010617283        0.5220272735       -0.0496798491
 C         -5.4859286085        1.5372666657       -1.1974805255
 C         -4.8436881325        2.8951326158       -0.9115676506
 H         -5.2330835071        3.2889331615        0.0277776761
 H         -5.1618960504        3.5734947502       -1.7057001132
 C         -3.3095208243        2.8698226267       -0.8672526880
 H         -2.9150834711        3.7048857372       -1.4501782685
 H         -2.9468467869        1.9529912521       -1.3378108738
 C         -2.7110444542        2.9735998283        0.5356530515
 H         -2.9475658643        3.9500666028        0.9640877172
 H         -1.6256952334        2.8918541360        0.4453376044
 C         -3.1854707804        1.8864506725        1.5087716642
 H         -4.2185115202        2.0680496613        1.8049899292
 H         -2.5549582846        1.9207590579        2.4006094092
 H         -6.5450718540        1.6970512410       -1.4126982747
 H         -5.0288552645        1.0977767408       -2.0870942767
 H         -5.7615934889        0.9814960670        0.8712791585
 H         -6.0470670637       -0.3249339404       -0.2911624251
 O         -3.8702374141       -1.2415967316       -0.4411161826
 C         -2.6726669510       -1.9438368038       -0.3833995289
 O         -2.6865504040       -2.9913726195       -1.0597883392
 O         -0.8646170624        0.3077399468        1.7985139460
 C         -0.3127516280       -2.1431416096        0.5669478780
 C          0.6421940962       -1.8328510734       -0.5613126427
 C          0.3134702611       -2.1030188293       -1.8856029229
 C          1.2139126970       -1.8257927092       -2.8976167125
 C          2.4509816118       -1.2747120331       -2.6124064825
 C          2.7915663898       -1.0062633357       -1.2914904488
 C          1.8848791326       -1.2856779069       -0.2775090648
 H          2.1628333513       -1.0807170784        0.7443956315
 N          4.0509466246       -0.4827713544       -0.9775501808
 S          4.3152694357        0.4936611578        0.3482047394
 O          5.6115881230        1.0826855700        0.0913710142
 O          4.2009816637       -0.2743741390        1.5622227938
 C          3.0648791878        1.7624363612        0.2844095664
 C          3.0988334706        2.6478047430       -0.7761262882
 C          2.1459024268        3.6499215450       -0.8430977260
 C          1.1805169597        3.7518491797        0.1480089948
 C          1.1625354361        2.8585477631        1.2071322654
 C          2.1116018066        1.8513322398        1.2764895663
 H          2.1140134581        1.1382215303        2.0845526658
 H          0.4091980738        2.9221145515        1.9756840015
 H          0.4398107359        4.5348005962        0.0962070952
 H          2.1572060267        4.3491190057       -1.6637749697
 H          3.8747053934        2.5507465057       -1.5180640740
 H          4.6216222427       -0.2225399041       -1.7674290648
 H          3.1524810010       -1.0621094641       -3.4044303269
 H          0.9490458978       -2.0399494719       -3.9220923228
 H         -0.6509965872       -2.5320699969       -2.1106543901
 H          0.1225418094       -1.7283226938        1.4868767218
 C         -0.4416486606       -3.6442241331        0.7394674229
 C          0.6758048431       -4.3937181001        1.3982534084
 C         -0.6299892184       -4.2133271958        2.1118895493
 H         -1.2784134004       -5.0685295281        2.2295342289
 H         -0.6663969180       -3.5212807785        2.9408340892
 H          0.9271016949       -5.3750231921        1.0260497994
 H          1.5267114604       -3.8245284319        1.7428778438
 H         -0.9623293162       -4.1290523140       -0.0757568699
