  62
        -98.94284627
 C         -2.4589763338       -0.8770518769        0.5186558335
 C         -2.5013701223        0.2323045279       -0.3601315744
 C         -3.5888517225        1.1903676202       -0.1210746479
 C         -4.4417413404        0.9970257882        0.9009970216
 C         -5.5843818459        1.8977435737        1.2845943949
 C         -6.8709378527        1.6494124491        0.4852352783
 C         -6.8364354849        2.1255036087       -0.9675564129
 H         -7.8620463407        2.0905603981       -1.3403939589
 H         -6.5138682222        3.1666226828       -0.9999701595
 C         -5.9473368749        1.2799649875       -1.8900686923
 H         -6.4841180134        1.0658664123       -2.8170832634
 H         -5.7369851794        0.3196607679       -1.4135272517
 C         -4.6237964240        1.9409681233       -2.2752382021
 H         -4.0596703521        1.2411455072       -2.8970507869
 H         -4.8204449598        2.8360225164       -2.8695944638
 C         -3.7419179042        2.3308435473       -1.0817256525
 H         -2.7472210203        2.5831314714       -1.4572565896
 H         -4.1569454449        3.2024070478       -0.5761991989
 H         -7.0991619271        0.5814339637        0.5135002292
 H         -7.6794070904        2.1753853109        0.9981991380
 H         -5.2822406643        2.9396944832        1.1756778263
 H         -5.7918359526        1.7039631314        2.3391480726
 O         -4.3455186745       -0.0662136409        1.7434767261
 C         -3.3671481110       -1.0299302549        1.5674810534
 O         -3.4053668785       -1.9583566167        2.4003541652
 O         -1.6825698703        0.4193246799       -1.2971994735
 C         -1.3875627988       -1.9439492869        0.3641050064
 C         -0.0388675898       -1.3200858579        0.6293155267
 C          0.2580241582       -0.9087646253        1.9265362370
 C          1.4684975069       -0.3110564051        2.2184521082
 C          2.4070842452       -0.1015349985        1.2222158691
 C          2.1214867679       -0.5074069387       -0.0733981329
 C          0.9080774164       -1.1217150189       -0.3614666901
 H          0.6995307439       -1.4262955917       -1.3748641982
 N          3.0573894902       -0.2773287253       -1.0935307546
 S          4.6659992160       -0.6646527816       -0.8363806108
 O          5.2241997667       -0.8542243923       -2.1575624995
 O          4.8050859463       -1.7708971988        0.0823244269
 C          5.3593792416        0.8119993030       -0.1225971174
 C          5.1584121225        2.0111277644       -0.7777017774
 C          5.7067531225        3.1656572499       -0.2424840463
 C          6.4455935492        3.1018516313        0.9296555541
 C          6.6406199289        1.8898623816        1.5738919837
 C          6.0936908930        0.7313529509        1.0442999921
 H          6.2139441913       -0.2318981182        1.5140562793
 H          7.2149958191        1.8423472667        2.4851212428
 H          6.8713519538        4.0023316450        1.3434342941
 H          5.5561969955        4.1102242985       -0.7400271439
 H          4.5793187314        2.0195425580       -1.6860805890
 H          2.7465928246       -0.5627412124       -2.0103262883
 H          3.3517484167        0.3686664136        1.4416298145
 H          1.6842784581       -0.0005829741        3.2295813791
 H         -0.4803349252       -1.0643666890        2.7017182412
 H         -1.5789355857       -2.6811631759        1.1561745136
 C         -1.4990288841       -2.6338169551       -0.9788742484
 C         -0.8484830175       -3.9681076138       -1.1828974420
 C         -2.3413012045       -3.8666777571       -1.0969938242
 H         -2.9208368890       -4.0108244458       -1.9965702581
 H         -2.8287985809       -4.2253301182       -0.2020878532
 H         -0.4030832192       -4.1863179783       -2.1419139021
 H         -0.3190223727       -4.3976098096       -0.3456511471
 H         -1.5159947074       -1.9414023672       -1.8120681923
