  62
        -98.93605799
 C         -2.2110741801       -0.8369195698        0.1492081000
 C         -3.3960147402       -0.8835849295        0.9275464897
 C         -4.3049125203        0.2725050204        0.8433574890
 C         -3.9633782701        1.3215180701        0.0729207686
 C         -4.6493112801        2.6500464000       -0.1685464522
 C         -6.0965992502        2.8713046801        0.2628065974
 C         -7.1271175000        2.0595817297       -0.5216433725
 H         -8.1057503901        2.2136273699       -0.0620832928
 H         -7.1729574898        2.4509061092       -1.5411246327
 C         -6.8522811699        0.5608876597       -0.6163321318
 H         -5.9178635098        0.3934218795       -1.1561297215
 H         -7.6519201098        0.1113634194       -1.2113309017
 C         -6.7950574502       -0.1788008297        0.7187273886
 H         -6.7527047201       -1.2493643798        0.5005289891
 H         -7.7102539704        0.0105798605        1.2828101283
 C         -5.5897927304        0.1598080507        1.6126725887
 H         -5.7693366706        1.0613585310        2.1934588883
 H         -5.4515447106       -0.6633305889        2.3196996491
 H         -6.3127169502        3.9297821300        0.0941173568
 H         -6.2020984305        2.6953759006        1.3292387774
 H         -4.5624036499        2.8395525595       -1.2433577023
 H         -4.0207096802        3.3993513902        0.3256221676
 O         -2.7957899500        1.3389544598       -0.6323093812
 C         -1.8978933999        0.2799703998       -0.6259678705
 O         -0.9010694298        0.4755956495       -1.3465493503
 O         -3.6832729704       -1.8550713392        1.6761912501
 C         -1.2622762200       -2.0189472397        0.2616005307
 C          0.1160663899       -1.5194436995        0.6076925008
 C          0.4149860595       -1.1932749489        1.9270966007
 C          1.6492166694       -0.6685815987        2.2613305708
 C          2.6039516997       -0.4435970791        1.2848896809
 C          2.3071682400       -0.7474303797       -0.0365408990
 C          1.0792298801       -1.3063219099       -0.3651447091
 H          0.8544627903       -1.5309227804       -1.3961954590
 N          3.2626510602       -0.5023297802       -1.0378351589
 S          4.0583273902        0.9765112299       -1.0331238594
 O          3.2701702300        2.0237139601       -0.4264388201
 O          4.4675065105        1.1879368093       -2.4051433794
 C          5.5104365499        0.6620766604       -0.0477781189
 C          5.8175836797        1.4957078809        1.0096740208
 C          6.9581090195        1.2415514312        1.7556683612
 C          7.7683672696        0.1643242811        1.4317686818
 C          7.4479650499       -0.6619462794        0.3648453721
 C          6.3098678500       -0.4125644498       -0.3852313482
 H          6.0275539203       -1.0278601102       -1.2229209180
 H          8.0805837600       -1.4986499995        0.1158690027
 H          8.6546234995       -0.0320298986        2.0142342021
 H          7.2083000793        1.8836893616        2.5848771909
 H          5.1547315196        2.3182449609        1.2275389202
 H          2.9251723504       -0.7129190806       -1.9664768589
 H          3.5614307696       -0.0160928790        1.5340461309
 H          1.8695113592       -0.4249145782        3.2895973107
 H         -0.3393268106       -1.3448635586        2.6868703206
 H         -1.6454939002       -2.5899737193        1.1223919109
 C         -1.2716532197       -2.9711038903       -0.9246960688
 C         -2.5634460096       -3.3310968906       -1.5942585990
 C         -1.5313064794       -2.5373354909       -2.3348446291
 H         -0.9809916392       -3.0270612513       -3.1255412788
 H         -1.7168247494       -1.4911561010       -2.5205593996
 H         -2.7303525195       -4.3581544808       -1.8815008886
 H         -3.4533955097       -2.8193195405       -1.2577434694
 H         -0.5549075597       -3.7763663502       -0.7932799583
