  62
        -98.94042396
 C         -1.8371967541       -0.7397092982        0.6749762159
 C         -2.1212593503        0.5251135547        0.1008155955
 C         -3.5284809020        0.9568026497        0.1662202791
 C         -4.4376478970        0.1783920333        0.7780813041
 C         -5.9070944369        0.4709329819        0.8602707517
 C         -6.6639179323       -0.1479628637       -0.3233813576
 C         -6.0383136956        0.1564384313       -1.6846163315
 H         -5.0622493851       -0.3302055949       -1.7457324312
 H         -6.6739464001       -0.3030957707       -2.4445975623
 C         -5.8771868275        1.6523380236       -1.9893129687
 H         -6.2092513475        1.8391083455       -3.0127921418
 H         -6.5196033529        2.2364845417       -1.3293902553
 C         -4.4411202621        2.1696056983       -1.8857141266
 H         -3.7788060965        1.5306208762       -2.4754888920
 H         -4.4071872110        3.1694236040       -2.3268131389
 C         -3.8710118615        2.2767968807       -0.4655706239
 H         -4.5617621589        2.8387783382        0.1663249462
 H         -2.9307859344        2.8332396819       -0.5252397911
 H         -6.6860410127       -1.2322810921       -0.1915270035
 H         -7.6924066379        0.2170518876       -0.3039729507
 H         -6.2910991930        0.0445196486        1.7885647473
 H         -6.0576249000        1.5486472265        0.8780841938
 O         -4.1192883879       -1.0049034262        1.3612829165
 C         -2.8232931061       -1.4894443495        1.3256135626
 O         -2.6740022639       -2.5829893561        1.9057637602
 O         -1.2668554609        1.2665292231       -0.4489326506
 C         -0.4398535337       -1.3395112328        0.6872175761
 C          0.5657088346       -0.3257117894        1.1685524967
 C          0.7163409055       -0.0966330193        2.5321257974
 C          1.6388180999        0.8221022515        3.0002569054
 C          2.4254866459        1.5385059355        2.1148920396
 C          2.2676002899        1.3285443902        0.7530022094
 C          1.3553810342        0.3937648121        0.2854764554
 H          1.2376904115        0.2466365629       -0.7769157416
 N          3.0896234702        2.0446587976       -0.1535671542
 S          4.6439717484        1.4304273813       -0.2630210900
 O          5.2966452334        1.5995740008        1.0097479353
 O          5.2603166002        2.0827791427       -1.3958638770
 C          4.4020408382       -0.3044471438       -0.6026525200
 C          4.3005762728       -0.7201294475       -1.9152833878
 C          4.0051402802       -2.0482744682       -2.1771322795
 C          3.8026139552       -2.9297527730       -1.1260002525
 C          3.9050640730       -2.4959439630        0.1870954737
 C          4.2056520338       -1.1700536608        0.4549148416
 H          4.2935390910       -0.7948781777        1.4615110886
 H          3.7423534908       -3.1825687938        1.0024368154
 H          3.5620400356       -3.9614219156       -1.3305505236
 H          3.9263456557       -2.3903415762       -3.1966984610
 H          4.4642725778       -0.0015531834       -2.7025480831
 H          2.6873787850        2.0956182092       -1.0796876309
 H          3.1617665301        2.2477869563        2.4566156834
 H          1.7466297870        0.9821399454        4.0623925602
 H          0.0981594811       -0.6502882024        3.2256899651
 H         -0.4893831822       -2.1460276644        1.4354703712
 C         -0.0157350805       -1.9892305892       -0.6228510934
 C         -0.9886230048       -2.8110563235       -1.4126682778
 C         -0.4818748830       -1.5139494168       -1.9644686657
 H          0.2189188354       -1.5469980136       -2.7861197180
 H         -1.1533700898       -0.6707400140       -1.9995392313
 H         -0.6451824536       -3.7320878615       -1.8581881378
 H         -2.0073507060       -2.8517037509       -1.0544815820
 H          1.0032649939       -2.3612848187       -0.5699838320
