  62
        -98.94094316
 C          2.6830971119        1.0526732508       -0.4101178469
 C          2.1203441299       -0.0613426499       -1.0794578648
 C          2.8722351387       -1.3209768331       -0.9726555588
 C          4.0234952654       -1.3505636192       -0.2781018755
 C          4.8554580992       -2.5771055779       -0.0433008381
 C          4.4464209831       -3.2841015380        1.2564396612
 C          2.9400410832       -3.5086917643        1.3921456350
 H          2.7740903927       -4.0427975913        2.3304116622
 H          2.4380439180       -2.5420665687        1.4841164827
 C          2.3079785147       -4.2979739104        0.2372351564
 H          3.0827095771       -4.8335442737       -0.3129881020
 H          1.6299784118       -5.0449079976        0.6554718854
 C          1.4876895929       -3.4504892672       -0.7372697492
 H          0.7691063585       -2.8430400605       -0.1791747353
 H          0.9147125403       -4.1287236059       -1.3755389537
 C          2.2954318111       -2.5272515935       -1.6586179077
 H          3.0803759560       -3.1002339103       -2.1562518016
 H          1.6137847044       -2.1407795347       -2.4217857783
 H          4.9638653962       -4.2438801500        1.3051624379
 H          4.7776854311       -2.6755949523        2.1010662686
 H          4.7432757455       -3.2536697559       -0.8881218688
 H          5.9009529468       -2.2738300061        0.0326284268
 O          4.5413540600       -0.2576330174        0.3379970034
 C          3.8781904060        0.9561004216        0.3083858669
 O          4.4489743665        1.8660074482        0.9423198391
 H         -0.5649990552        1.6787240218       -1.0430453339
 C         -0.4521148272        1.8635669675        0.0134775442
 C          0.7759276901        2.2717445963        0.5104059263
 C          0.9077486588        2.4683067008        1.8819181231
 C         -0.1633451581        2.2578216720        2.7306891636
 C         -1.3844242046        1.8369430763        2.2327673634
 C         -1.5217612614        1.6291606480        0.8672149926
 N         -2.7555264711        1.1824478363        0.3456775562
 S         -3.3891740808       -0.2072082830        1.0741329227
 O         -4.0077560151        0.1766288722        2.3189970024
 O         -2.3758044651       -1.2353038897        1.1666160825
 C         -4.6429614616       -0.6623569691       -0.1068912618
 C         -4.3223127315       -1.5437900369       -1.1216956884
 C         -5.2916028690       -1.8677575869       -2.0580611133
 C         -6.5556856467       -1.3046450100       -1.9659847762
 C         -6.8614600273       -0.4203033272       -0.9422260535
 C         -5.8975375536       -0.0929312312       -0.0019887809
 H         -6.0898561773        0.5824217115        0.8150766170
 H         -7.8457890660        0.0138747370       -0.8740248512
 H         -7.3073333703       -1.5588478757       -2.6965417337
 H         -5.0565821709       -2.5558694888       -2.8541749693
 H         -3.3284486689       -1.9624260467       -1.1513747419
 H         -2.6834265211        1.0267589332       -0.6522707433
 H         -2.2204706113        1.6438172978        2.8852885129
 H         -0.0460865916        2.4141967115        3.7927712410
 H          1.8692151062        2.7665941772        2.2769492988
 C          1.9877195752        2.4064519351       -0.3796979766
 H          2.6914618980        3.0940022924        0.1072837549
 C          1.6757453983        2.9321676784       -1.7650821325
 C          1.2989162051        4.3731264956       -1.9279934050
 C          2.6294659902        3.8864197058       -2.4159173185
 H          2.7915665465        3.8052960142       -3.4802806034
 H          3.5125491760        4.1675086119       -1.8607447600
 H          1.2779372387        4.9846360032       -1.0385592384
 H          0.5462992538        4.6307612685       -2.6572044642
 H          1.1935976490        2.2059741524       -2.4062434162
 O          1.0510714775       -0.0239368907       -1.7440657616
