  62
        -98.94124484
 C          2.0145338458        1.2222546127        0.1198391847
 C          2.7978121874        0.6562863134        1.1579755119
 C          3.9828905918       -0.0991932778        0.7383056864
 C          4.2535355195       -0.2391055767       -0.5719327767
 C          5.4390560743       -0.9550693149       -1.1601608068
 C          5.2503346355       -2.4723726392       -1.2935155510
 C          5.2884205433       -3.2508545884        0.0222185738
 H          5.3617600772       -4.3096689928       -0.2339975904
 H          6.1911605358       -2.9863391916        0.5737690961
 C          4.0574376049       -3.0438792437        0.9158308106
 H          3.7082247842       -4.0111945699        1.2845602763
 H          3.2453345551       -2.6170660282        0.3220597820
 C          4.3018229253       -2.1548278505        2.1354283463
 H          3.3581874664       -2.0476386926        2.6766168669
 H          5.0185511202       -2.6384939439        2.8027152705
 C          4.8178157099       -0.7492492676        1.8001425336
 H          4.7486260377       -0.1353479590        2.7015517027
 H          5.8608781351       -0.7963695323        1.4879568462
 H          6.0525000815       -2.8452820467       -1.9345240184
 H          4.3028349668       -2.6633207588       -1.8031436926
 H          5.5892300893       -0.5386832797       -2.1586102119
 H          6.3260644841       -0.7489523747       -0.5603419282
 O          3.4588286500        0.2864866790       -1.5398023563
 C          2.3093945359        1.0057226986       -1.2275689752
 O          1.6676981620        1.3800826501       -2.2253383326
 H         -0.2030755824       -0.4504013321        0.5491732577
 C         -0.7847368205        0.1845917276       -0.1083895748
 C         -0.4186935617        1.5177145443       -0.2557539391
 C         -1.1730712617        2.3216520170       -1.0987826741
 C         -2.2474528507        1.7931791081       -1.7939492047
 C         -2.5969470810        0.4628183474       -1.6594379235
 C         -1.8562370556       -0.3478871601       -0.8078060801
 N         -2.2083211630       -1.6989492628       -0.6547293852
 S         -3.8277832175       -2.0873896414       -0.5011416918
 O         -3.8474483300       -3.3255008821        0.2462413803
 O         -4.4456736774       -2.1295979698       -1.8030049110
 C         -4.5393021474       -0.7645132680        0.4619058433
 C         -4.0412371978       -0.5437131466        1.7308248925
 C         -4.5589203829        0.4985389201        2.4821372660
 C         -5.5612908565        1.2983186746        1.9543998257
 C         -6.0548083898        1.0601153948        0.6813347093
 C         -5.5389662474        0.0201615159       -0.0755556881
 H         -5.8915871294       -0.1985876259       -1.0702839600
 H         -6.8358279815        1.6819322231        0.2745734000
 H         -5.9598926242        2.1108056238        2.5410602596
 H         -4.1764995556        0.6845270451        3.4729770522
 H         -3.2657396788       -1.1871966385        2.1148358882
 H         -1.6420239691       -2.2022539451        0.0113381176
 H         -3.4163316153        0.0333368776       -2.2126174616
 H         -2.8164224517        2.4258536841       -2.4578456599
 H         -0.9026671292        3.3553835805       -1.2354428615
 C          0.7772916347        2.0051834568        0.5225073473
 H          0.6225222077        1.7348189685        1.5808079737
 C          0.9488293958        3.5160464807        0.4894020171
 C          2.2924811667        4.1434776589        0.7066919365
 C          1.6340444796        4.2290799089       -0.6360392389
 H          1.2397272102        5.1841649085       -0.9513593065
 H          2.0260179396        3.6317754350       -1.4438260236
 H          3.1411642524        3.4841102941        0.8183240405
 H          2.3510943712        5.0361184104        1.3112341995
 H          0.1047422846        4.0259652507        0.9434697065
 O          2.5162330669        0.7749429256        2.3805260901
