  62
        -98.93737396
 C          1.7764751493        0.2007799944        0.4272385908
 C          2.7133134623        0.6986735163       -0.5084199683
 C          3.9914220494       -0.0327327069       -0.6147245851
 C          4.2083976598       -1.1138398008        0.1557022222
 C          5.3813878761       -2.0692644848        0.2298840611
 C          6.7226254902       -1.7127767801       -0.4062227178
 C          7.4551641215       -0.5458720511        0.2551726856
 H          8.3437642022       -0.3206273586       -0.3386175281
 H          7.7892637529       -0.8626233473        1.2464540984
 C          6.6378370169        0.7315006171        0.4310134371
 H          7.2793551272        1.4744837191        0.9127114890
 H          5.8024110734        0.5418555908        1.1081102503
 C          6.1011606740        1.3472758780       -0.8595770631
 H          6.9228908377        1.5053014807       -1.5607043840
 H          5.6832753456        2.3254760242       -0.6074771410
 C          4.9981934372        0.5427924108       -1.5691112003
 H          5.4190009944       -0.2374138590       -2.1986022696
 H          4.4469814937        1.2277254132       -2.2196366984
 H          6.5988629648       -1.5312865807       -1.4697544777
 H          7.3570131874       -2.5980505871       -0.3084849472
 H          5.0275066706       -3.0077142237       -0.2115475337
 H          5.5329765352       -2.2699661847        1.2953613808
 O          3.2682929909       -1.5641248593        1.0388083351
 C          2.0526203248       -0.9281221199        1.2013150940
 O          1.3157898747       -1.4513039828        2.0624369728
 O          2.5175399853        1.7063094404       -1.2359436241
 C          0.4144494327        0.8417110067        0.6512454689
 C         -0.5198452815        0.4603678647       -0.4724095475
 C         -0.4636161750        1.0704360765       -1.7215451722
 C         -1.3116642597        0.6664184586       -2.7360705695
 C         -2.2435580894       -0.3340677034       -2.5228410006
 C         -2.3075064376       -0.9510056768       -1.2796628014
 C         -1.4458938509       -0.5536589941       -0.2665921451
 H         -1.4915692260       -1.0582711512        0.6875164236
 N         -3.2457720539       -1.9703054341       -1.0296198363
 S         -4.2271465794       -1.8231709977        0.3189128272
 O         -3.4754997110       -2.0843425571        1.5190381388
 O         -5.3429500237       -2.7059775301        0.0573892584
 C         -4.7667871177       -0.1239392255        0.2751954383
 C         -5.7767143856        0.2176916285       -0.6032513442
 C         -6.1556000985        1.5460245014       -0.7060871621
 C         -5.5141646520        2.5068842593        0.0607903544
 C         -4.5034432246        2.1479479863        0.9388211413
 C         -4.1223697574        0.8198076177        1.0485817158
 H         -3.3440935439        0.4976828968        1.7217232520
 H         -4.0075152142        2.8969840234        1.5354346143
 H         -5.8044465624        3.5421901186       -0.0229007624
 H         -6.9448201292        1.8281846067       -1.3840788788
 H         -6.2557281099       -0.5616514209       -1.1735861012
 H         -3.8002622558       -2.2203384492       -1.8363797271
 H         -2.9089396981       -0.6449580387       -3.3140830872
 H         -1.2513090838        1.1414190666       -3.7033875567
 H          0.2729841231        1.8365811541       -1.9011937653
 H          0.0270005792        0.3853076250        1.5725193287
 C          0.4966099802        2.3407663650        0.8571894761
 C         -0.6298286242        3.0378015966        1.5559277441
 C          0.6919243114        2.8741699168        2.2431291010
 H          1.3183990059        3.7432947544        2.3769114761
 H          0.7641010463        2.1577186908        3.0492437212
 H         -0.9160323049        4.0218669679        1.2187140800
 H         -1.4521787823        2.4282419751        1.8986389028
 H          0.9973188535        2.8635837992        0.0539477280
