  62
        -98.94199218
 C          1.2232811884       -0.8599885714       -0.3589563240
 C          2.0479159875       -0.6676610001        0.7726949196
 C          3.0403939448        0.4181517694        0.6783568870
 C          3.0678018548        1.1876581041       -0.4234556665
 C          4.0263644071        2.3035167899       -0.7351141212
 C          5.2204872232        1.7809332596       -1.5520722611
 C          6.3811165349        1.2351665406       -0.7208364728
 H          7.0911195935        0.7798766334       -1.4150678124
 H          6.8908681515        2.0662141966       -0.2289670017
 C          5.9983279148        0.2001368610        0.3403295152
 H          5.2750256097       -0.5034136835       -0.0755582438
 H          6.8957443391       -0.3684374819        0.5915102159
 C          5.4356387801        0.8300151341        1.6233312072
 H          5.6349943545        1.9015366517        1.6103862812
 H          5.9678802784        0.4267029280        2.4873004506
 C          3.9388906611        0.5879229032        1.8729649250
 H          3.8092249893       -0.3342721817        2.4484524399
 H          3.5429147887        1.3994847101        2.4932527750
 H          4.8500359103        1.0025880858       -2.2241313073
 H          5.6021096340        2.5939214816       -2.1730824637
 H          3.4755510071        3.0258858756       -1.3416996735
 H          4.3558362367        2.7937405321        0.1762719705
 O          2.2158330324        1.0031573279       -1.4693572402
 C          1.2744799038       -0.0085819830       -1.4616325715
 O          0.5489298190       -0.0485077385       -2.4772514649
 H         -0.8431696181        0.3991003064        0.3260017595
 C         -1.2876114262       -0.3977554890        0.9021075053
 C         -0.8522244579       -1.7022466300        0.7158714383
 C         -1.4160634300       -2.7050901879        1.4944363523
 C         -2.3804655569       -2.3963417050        2.4385806672
 C         -2.8236874402       -1.0968964839        2.6073883045
 C         -2.2696760256       -0.0878033755        1.8281300484
 N         -2.6903775612        1.2458135160        1.9482804945
 S         -2.7860400294        2.1910222444        0.5706272472
 O         -1.4716469628        2.6150268691        0.1565028682
 O         -3.7022943962        3.2521352255        0.9330724085
 C         -3.5452025075        1.1339874824       -0.6504398997
 C         -4.8735323767        0.8048444317       -0.4545793373
 C         -5.4940089130       -0.0533646072       -1.3463311819
 C         -4.7770540673       -0.5725189361       -2.4141919789
 C         -3.4478991189       -0.2284211211       -2.6002608719
 C         -2.8211562003        0.6332344369       -1.7125085340
 H         -1.7848225737        0.9058961752       -1.8410908207
 H         -2.8811064400       -0.6259252592       -3.4273467039
 H         -5.2559842702       -1.2462087083       -3.1070953568
 H         -6.5296742553       -0.3173464865       -1.2058762756
 H         -5.3993070997        1.2384156882        0.3805677009
 H         -3.4787818143        1.3920187196        2.5613713125
 H         -3.5815316211       -0.8612076563        3.3384230292
 H         -2.8019450888       -3.1826218719        3.0460401984
 H         -1.0953362725       -3.7260163488        1.3679289162
 C          0.1761502111       -1.9576962035       -0.3603926910
 H         -0.3389890244       -1.8803118565       -1.3302142810
 C          0.8285403524       -3.3210859755       -0.2633686217
 C          0.1929542532       -4.5104291775       -0.9166560834
 C          1.4411009360       -3.9162969019       -1.4945240140
 H          2.3682050533       -4.4610817481       -1.3981731163
 H          1.3630436036       -3.3482361711       -2.4105125653
 H         -0.7333789522       -4.3540024105       -1.4483339761
 H          0.2653850859       -5.4686778837       -0.4247698772
 H          1.3497100375       -3.4662411801        0.6755567977
 O          1.9698945591       -1.3726450247        1.8134536935
