  62
        -98.93990833
 C          1.8610647463        0.5824399330        0.0055880995
 C          2.3999734011       -0.7110003483        0.2291183333
 C          3.8053349618       -0.9108050287       -0.1462835562
 C          4.4897147372        0.1127460341       -0.6881017127
 C          5.9403433101        0.0699499766       -1.0703203823
 C          6.8348294007        0.5249511743        0.0912433174
 C          6.5141331482       -0.1570197310        1.4212323488
 H          5.5185928114        0.1508338329        1.7491046964
 H          7.2260716665        0.2182258165        2.1595638385
 C          6.5803982951       -1.6901372218        1.3806238290
 H          7.1192923633       -2.0411457548        2.2632061451
 H          7.1458494867       -2.0139926946        0.5061194652
 C          5.2170190115       -2.3843408188        1.3867526388
 H          4.6103689083       -1.9950863281        2.2084296754
 H          5.3780109265       -3.4490783181        1.5761964301
 C          4.4028525016       -2.2689896473        0.0917121478
 H          3.5569990139       -2.9588043308        0.1681193484
 H          5.0178137009       -2.5736835980       -0.7577750768
 H          6.7121368063        1.6026368660        0.2209495918
 H          7.8747928106        0.3311147011       -0.1774909766
 H          6.0925287811        0.7395982487       -1.9184058415
 H          6.2013934084       -0.9435844004       -1.3686496306
 O          3.9385924345        1.3310765569       -0.9068022389
 C          2.6173009630        1.6056005288       -0.5689082755
 O          2.2704851453        2.7704448206       -0.8324100655
 O          1.7328588306       -1.6563036540        0.7311566420
 C          0.4125353122        0.7935180602        0.4122745437
 C         -0.5090819476        0.5073206377       -0.7456713351
 C         -0.3460328875        1.1529065316       -1.9686171812
 C         -1.1873201112        0.8683791411       -3.0277280739
 C         -2.2071815789       -0.0569689647       -2.8889398799
 C         -2.3738206389       -0.7128306421       -1.6748386915
 C         -1.5290432844       -0.4233817619       -0.6102313894
 H         -1.6512159094       -0.9616002322        0.3177263421
 N         -3.3859358708       -1.6666863148       -1.5199397731
 S         -4.1266148045       -1.9315052797       -0.0529791414
 O         -3.2686783981       -2.6878685102        0.8237366725
 O         -5.3834892666       -2.5601194163       -0.4000381034
 C         -4.4395412790       -0.3190294049        0.6455628701
 C         -4.9736206847        0.6708425973       -0.1559302679
 C         -5.2444128213        1.9105963710        0.4002400601
 C         -4.9884345028        2.1373587710        1.7437520927
 C         -4.4586662485        1.1318921859        2.5372731571
 C         -4.1777345980       -0.1078373366        1.9839976451
 H         -3.7519689114       -0.9128812576        2.5617990801
 H         -4.2565591079        1.3088538409        3.5814517538
 H         -5.1988954136        3.1032968617        2.1742223424
 H         -5.6529504735        2.6955226911       -0.2153157067
 H         -5.1720869025        0.4673015650       -1.1953355038
 H         -4.0149590697       -1.7707647485       -2.3013996759
 H         -2.8606562658       -0.2821477226       -3.7178521524
 H         -1.0500033376        1.3745517732       -3.9712864852
 H          0.4482702890        1.8756942162       -2.0763739781
 H          0.2229531701        0.0219915929        1.1759176854
 C          0.1594731551        2.1476369916        1.0610567359
 C         -0.7055587358        3.2105529575        0.4591400267
 C         -1.1870710672        2.4445067176        1.6517016543
 H         -1.2355150982        2.9434747110        2.6073590278
 H         -1.9651677559        1.7125369892        1.4936396020
 H         -0.3931734987        4.2353250439        0.5882457445
 H         -1.1704298331        3.0144710721       -0.4935138882
 H          1.0228102905        2.4948444632        1.6193190023
