  62
        -98.93421766
 C         -1.7851345586       -0.7549469086       -0.8638383256
 C         -2.0379381010       -0.3288772947        0.4616865520
 C         -3.4578667029       -0.2384025313        0.8576886854
 C         -4.4110831036       -0.5912791843       -0.0209017636
 C         -5.9016769149       -0.5228255321        0.1647298392
 C         -6.4559704566        0.8073340332       -0.3730815448
 C         -6.4444450203        1.9616691783        0.6283367486
 H         -6.7348106703        2.8646051662        0.0862421019
 H         -7.2034524830        1.7805057336        1.3923152639
 C         -5.1031216142        2.2141747970        1.3218147701
 H         -4.2933624785        2.1449699774        0.5933520568
 H         -5.1102489059        3.2381843598        1.7001751744
 C         -4.8379175613        1.2547687874        2.4916609801
 H         -5.7615949556        0.7316344006        2.7388056863
 H         -4.5637306633        1.8321749358        3.3769773662
 C         -3.7120470319        0.2347604804        2.2630451376
 H         -2.7588745912        0.6646343242        2.5864874337
 H         -3.8887325388       -0.6400886992        2.8977434996
 H         -5.8736248699        1.0799872639       -1.2570876673
 H         -7.4868066642        0.6515404204       -0.6976935582
 H         -6.3260009434       -1.3394484416       -0.4232516438
 H         -6.1677912694       -0.6671359018        1.2076131387
 O         -4.1215781075       -1.0352665521       -1.2756279898
 C         -2.8181014064       -1.1347447645       -1.7239025328
 O         -2.7068381643       -1.5769462360       -2.8850175773
 H          2.0386874202       -0.1018660579       -0.2905913790
 C          1.7040150336       -1.0633126497        0.0594002927
 C          0.5040774484       -1.5934718652       -0.3846037536
 C          0.0988272705       -2.8301439011        0.1130468800
 C          0.8646805702       -3.5040552764        1.0428240925
 C          2.0688877860       -2.9750555895        1.4750814268
 C          2.4888763981       -1.7501632354        0.9755681620
 N          3.7037335708       -1.1780786220        1.3854049763
 S          4.7070924523       -0.5069467564        0.2255625244
 O          4.5803500139       -1.1878888833       -1.0424467901
 O          6.0246643512       -0.5236840972        0.8256598628
 C          4.1728657889        1.1837655073        0.0697296198
 C          3.9625988947        1.9227273224        1.2168959661
 C          3.5853681878        3.2505519138        1.0968255763
 C          3.4324417042        3.8161063991       -0.1600726221
 C          3.6506241999        3.0612859336       -1.3026012081
 C          4.0252870008        1.7316129709       -1.1891019834
 H          4.1963261870        1.1054194981       -2.0504733559
 H          3.5289602387        3.5014611518       -2.2797246606
 H          3.1383237980        4.8499596385       -0.2508369941
 H          3.4108974381        3.8402448444        1.9823060930
 H          4.0918186158        1.4506673695        2.1763386672
 H          4.2251904565       -1.7256172455        2.0545862218
 H          2.6739997824       -3.5042617427        2.1958166025
 H          0.5290209237       -4.4553677693        1.4281839109
 H         -0.8369651175       -3.2499115505       -0.2322467551
 C         -0.3713318675       -0.8995051968       -1.3993871070
 H         -0.4657958644       -1.5739342771       -2.2676046507
 C          0.2313480906        0.3964598610       -1.9223186533
 C         -0.6381294094        1.5054494636       -2.4329260945
 C          0.1332973413        1.6834466888       -1.1615611918
 H          0.9859817181        2.3465740964       -1.1659774739
 H         -0.4009220125        1.6653242034       -0.2254069339
 H         -1.7084755246        1.3707421024       -2.3720122710
 H         -0.3166630534        2.0423616490       -3.3126303639
 H          1.1534726433        0.2203744907       -2.4690004750
 O         -1.1352179868       -0.0296379913        1.2849441358
