  62
        -98.94456923
 C         -2.0972126297       -1.0915776318       -0.6267511686
 C         -1.5326670504        0.0258608281       -1.2882318495
 C         -2.1776968313        1.3232245078       -1.0297170206
 C         -3.2271152715        1.3892443678       -0.1929768809
 C         -3.9559119824        2.6470818876        0.1803967380
 C         -3.3683098630        3.2882227791        1.4443492675
 C         -1.8486280031        3.4539321601        1.4104119976
 H         -1.5579190936        3.9676324710        2.3301273573
 H         -1.3710884625        2.4710826204        1.4359741685
 C         -1.3188064835        4.2360008094        0.2004400971
 H         -0.5624262440        4.9426415503        0.5488996366
 H         -2.1244911038        4.8167926985       -0.2515115435
 C         -0.6534588227        3.3609731990       -0.8635431821
 H         -0.0835219030        4.0097635089       -1.5345091025
 H          0.0532747477        2.6870437899       -0.3728535114
 C         -1.6068872820        2.5255050477       -1.7283114416
 H         -2.4060106624        3.1616639468       -2.1155199522
 H         -1.0353534516        2.1371689473       -2.5764500011
 H         -3.8380665037        4.2641604889        1.5842527567
 H         -3.6237769427        2.6618652496        2.3024457980
 H         -5.0011313922        2.3929300971        0.3669440080
 H         -3.9057663127        3.3481561470       -0.6506956526
 O         -3.7362725508        0.2987931580        0.4366596800
 C         -3.1755441199       -0.9524665418        0.2506546911
 O         -3.7310072894       -1.8619893516        0.9016154118
 O         -0.5483955402       -0.0334363019       -2.0696135793
 C         -1.5493981087       -2.5060979915       -0.7516577274
 C         -0.5115640687       -2.7394888099        0.3168812430
 C         -0.5712041081       -3.8445056492        1.1564828239
 C          0.3642739319       -4.0079797278        2.1636474842
 C          1.3543511212       -3.0640186269        2.3657769735
 C          1.4230599106       -1.9532364576        1.5296184526
 C          0.5101400706       -1.8172641991        0.4962988524
 H          0.5678615601       -0.9610632596       -0.1520554183
 N          2.4139741999       -0.9807086767        1.7125949520
 S          2.1464040688        0.6584952029        1.4465355606
 O          2.8346771482        1.3165460042        2.5398305301
 O          0.7425082186        0.9553944518        1.3114037201
 C          3.0540923388        0.9819573022       -0.0531500996
 C          2.4461216390        0.9258486208       -1.2905642196
 C          3.2131247690        1.1643437004       -2.4218781897
 C          4.5633133388        1.4506417814       -2.3022053197
 C          5.1598076686        1.5035703629       -1.0510403797
 C          4.4007737086        1.2666197033        0.0822242004
 H          4.8192609484        1.3115610444        1.0741685704
 H          6.2099589584        1.7286267437       -0.9564326397
 H          5.1518372488        1.6347894111       -3.1872863198
 H          2.7410177592        1.1204338693       -3.3904117297
 H          1.3940663592        0.7020576100       -1.3809849196
 H          2.9895759598       -1.1192846057        2.5299353722
 H          2.0668883712       -3.1788479858        3.1687316137
 H          0.3100199324       -4.8697695673        2.8117510849
 H         -1.3674488976       -4.5637616499        1.0313101444
 H         -2.4027434883       -3.1679125919       -0.5314453070
 C         -1.0606204582       -2.8486512023       -2.1516707570
 C          0.3832374519       -3.0175426516       -2.5062697467
 C         -0.5110127673       -4.2163878122       -2.4323550658
 H         -0.7965771868       -4.7109182731       -3.3483798254
 H         -0.3850489469       -4.8812287714       -1.5909008752
 H          0.7023594718       -2.6632903922       -3.4742768869
 H          1.1196797517       -2.8812774905       -1.7298824067
 H         -1.6948062784       -2.4128314034       -2.9167225575
