  62
        -98.94402235
 C          2.1947024670        1.2507307178       -0.1709848862
 C          2.6042610494        0.1485119851       -0.9590761961
 C          3.9891308496       -0.3020159493       -0.7554598037
 C          4.7739915782        0.3489424547        0.1222890489
 C          6.1827923101       -0.0381255057        0.4651501310
 C          6.2178229913       -0.9991774909        1.6617425597
 C          5.2524931699       -2.1779720953        1.5359841641
 H          5.3861410038       -2.8036045659        2.4212003163
 H          4.2260679653       -1.8043577233        1.5593378401
 C          5.4510996683       -3.0293972097        0.2742121753
 H          6.4384629205       -2.8405107727       -0.1488437164
 H          5.4151011840       -4.0842668221        0.5545225227
 C          4.3886117817       -2.8200462837       -0.8065460470
 H          3.3925560008       -2.9168690449       -0.3663617428
 H          4.4964571628       -3.6166040719       -1.5477198151
 C          4.4550023077       -1.4841841941       -1.5575876027
 H          5.4674857250       -1.3226884050       -1.9332372180
 H          3.7768178486       -1.5513501040       -2.4134328038
 H          7.2372919531       -1.3722277013        1.7753174045
 H          5.9583256984       -0.4393354409        2.5632122588
 H          6.6479998993       -0.5031233503       -0.4017613106
 H          6.7358160692        0.8670888582        0.7214408113
 O          4.3507692149        1.4180796681        0.8437925296
 C          3.0513377757        1.8832249934        0.7305649471
 O          2.7833759493        2.8503839528        1.4714917043
 H         -1.2144139421        0.5599867761       -1.7676399842
 C         -1.1374610350        0.1721808617       -0.7643904634
 C         -0.1887367904        0.6830540071        0.1058243467
 C         -0.1153844023        0.1572397046        1.3935957102
 C         -0.9563164891       -0.8641276896        1.7908055838
 C         -1.8901797922       -1.3858646771        0.9121174104
 C         -1.9756721222       -0.8647217779       -0.3712585098
 N         -2.9229066641       -1.3861098813       -1.2668184191
 S         -4.4784776481       -1.6507004627       -0.7158065780
 O         -4.5307114625       -2.8798539100        0.0358149612
 O         -5.3120315082       -1.5955415855       -1.8959782278
 C         -4.8242422083       -0.2685229812        0.3585496790
 C         -4.8279031206        0.9971979519       -0.1939428059
 C         -5.0575468402        2.0872514078        0.6291346395
 C         -5.2757937034        1.8945111929        1.9849386459
 C         -5.2725688991        0.6175388996        2.5236687080
 C         -5.0428422643       -0.4767226233        1.7047887381
 H         -5.0316538633       -1.4859241295        2.0829404352
 H         -5.4445562868        0.4707691909        3.5778144807
 H         -5.4504568624        2.7455029717        2.6242504849
 H         -5.0627224064        3.0816823168        0.2124524994
 H         -4.6621537669        1.1120022393       -1.2529809168
 H         -2.9159349488       -0.9511522197       -2.1771371709
 H         -2.5413413755       -2.1960540648        1.1972200823
 H         -0.8826730518       -1.2634078515        2.7910513259
 H          0.6204739875        0.5597373639        2.0768782266
 C          0.7743366948        1.7798925959       -0.2775381249
 H          0.6938353332        2.5799922084        0.4715615781
 C          0.5274052297        2.3712666434       -1.6490006749
 C         -0.5603662291        3.3842980401       -1.8395220105
 C          0.8763650539        3.8075619716       -1.8916367662
 H          1.3014551066        4.0801324803       -2.8460418637
 H          1.2780696523        4.3683046904       -1.0602121123
 H         -1.1377163342        3.6636563818       -0.9714664255
 H         -1.1228925475        3.3728047349       -2.7609665773
 H          0.7243879693        1.6704094353       -2.4519284594
 O          1.8583787456       -0.4299704550       -1.7919423685
