  62
        -98.94461961
 C         -1.8077507906       -0.5227544054       -0.4799813333
 C         -2.8629840062       -1.2993913192        0.0557485141
 C         -4.2219807167       -0.8213427680       -0.2295924769
 C         -4.3855377841        0.2872374806       -0.9746905894
 C         -5.7104726889        0.9144591264       -1.2966949863
 C         -6.0958909971        1.9671309687       -0.2478624399
 C         -5.9655825377        1.4779975016        1.1945998476
 H         -4.9112702520        1.2942553407        1.4136582707
 H         -6.2911689728        2.2929074798        1.8447745762
 C         -6.7774663195        0.2144649128        1.5122995116
 H         -7.5466568936        0.0680071364        0.7531850133
 H         -7.2877638208        0.3572032316        2.4671784099
 C         -5.9424268390       -1.0609565606        1.6398775276
 H         -5.1145851459       -0.8888551424        2.3322787876
 H         -6.5753452873       -1.8394183545        2.0740762747
 C         -5.3680340369       -1.6163362730        0.3304457585
 H         -4.9671578345       -2.6123732502        0.5397911938
 H         -6.1656996004       -1.7156153942       -0.4084153930
 H         -7.1239851652        2.2817690742       -0.4362279677
 H         -5.4456822925        2.8358990833       -0.3747920026
 H         -5.6338609896        1.3975587581       -2.2722478346
 H         -6.4721042108        0.1386175500       -1.3453117264
 O         -3.3478357834        0.9983300151       -1.4853429400
 C         -2.0339655023        0.6209977575       -1.2454651956
 O         -1.1832060230        1.3704049962       -1.7612007380
 H          2.0024783588        0.3023177768       -0.9141421182
 C          1.5676632124        0.6691619397        0.0002251834
 C          0.3761988613        0.1474959116        0.4775902113
 C         -0.1560993137        0.6673354019        1.6561167967
 C          0.4735985556        1.6984157891        2.3233361534
 C          1.6575627099        2.2259149772        1.8374540498
 C          2.2026108601        1.7091353895        0.6689007479
 N          3.3978455276        2.2293182974        0.1576257367
 S          4.4787883066        1.2744013954       -0.6725387291
 O          5.7395310622        1.9763208094       -0.5512084004
 O          4.0260878170        1.0349656107       -2.0197809962
 C          4.5601423686       -0.2690490637        0.2214657989
 C          4.5764785564       -1.4507012304       -0.4900830212
 C          4.6543513572       -2.6512519238        0.1977359160
 C          4.7134860721       -2.6488169761        1.5823051034
 C          4.7031099292       -1.4530551984        2.2839933987
 C          4.6295625999       -0.2501777779        1.6005773308
 H          4.6248452183        0.6913913965        2.1245105511
 H          4.7508067806       -1.4541864240        3.3610191448
 H          4.7684293111       -3.5837507220        2.1173079927
 H          4.6642892999       -3.5809346759       -0.3484198615
 H          4.5214107723       -1.4056107999       -1.5657162504
 H          3.8528834770        2.9243626885        0.7295908434
 H          2.1482379895        3.0387645291        2.3506465073
 H          0.0433529384        2.0957022290        3.2302450390
 H         -1.0817459432        0.2549699497        2.0339268404
 C         -0.3755226796       -0.9568763293       -0.2206950175
 H         -0.4516088176       -1.8104012596        0.4692633773
 C          0.2701623743       -1.4298003675       -1.5048902080
 C          1.3661389176       -2.4504555847       -1.4654701542
 C          0.0067799776       -2.8302887592       -1.9685176889
 H         -0.1238324497       -3.0078560185       -3.0255059988
 H         -0.6185542953       -3.4486542072       -1.3412898629
 H          2.1696322455       -2.3639497444       -2.1808139412
 H          1.6728562903       -2.8170371370       -0.4976471064
 H          0.3199024009       -0.6538371539       -2.2612712165
 O         -2.6761494016       -2.3391000822        0.7430591932
