  62
        -98.93586688
 C         -2.2793078166       -1.4593919815        0.1485469301
 C         -2.4816496451       -0.3675646209       -0.7258423809
 C         -3.4838407128        0.6370922917       -0.3134686160
 C         -4.1454139922        0.4725759172        0.8453015260
 C         -5.1940337758        1.3551961578        1.4735976929
 C         -6.2854583843        1.9018397973        0.5404176274
 C         -6.1703338560        3.4057453869        0.2862987159
 H         -7.1526869448        3.7884637833        0.0008891436
 H         -5.8886779790        3.8955132063        1.2207683534
 C         -5.1835601345        3.8049701102       -0.8095371275
 H         -5.5953538708        3.5325558353       -1.7837246187
 H         -5.0891120397        4.8932289847       -0.7897724259
 C         -3.7872898038        3.1906587225       -0.6887844360
 H         -3.4573357231        3.1879113552        0.3496784968
 H         -3.0921597310        3.8295169150       -1.2384415032
 C         -3.6850331947        1.7753647094       -1.2770794819
 H         -4.5630631827        1.5636680902       -1.8942330508
 H         -2.8246491835        1.7226031009       -1.9515159733
 H         -6.2751336377        1.3563752857       -0.4018662558
 H         -7.2511191357        1.7135791102        1.0122315429
 H         -5.6472492907        0.7414055344        2.2553498228
 H         -4.6909244407        2.1822512123        1.9809032582
 O         -3.9075042567       -0.5886346713        1.6673201738
 C         -2.9837882335       -1.5636484009        1.3518296639
 O         -2.8848899237       -2.4684973935        2.2040522898
 H          0.2383347483       -0.7757530821       -1.4524199384
 C          0.7556599389       -1.1859242343       -0.5980646648
 C          0.1162842641       -2.1278121189        0.1951580944
 C          0.7810504454       -2.6148841306        1.3147932473
 C          2.0544641232       -2.1717717913        1.6260202594
 C          2.6884644615       -1.2329623461        0.8316850560
 C          2.0265845672       -0.7297118534       -0.2802828254
 N          2.6547671515        0.2366486477       -1.0879405345
 S          3.2685543176        1.5996530159       -0.3210361805
 O          2.5533802180        1.8909407217        0.9007302195
 O          3.2724821967        2.6379539515       -1.3285573775
 C          4.9519795003        1.1482239357        0.0462273084
 C          5.7536409649        0.7286629824       -0.9974353579
 C          7.0678229927        0.3783388108       -0.7327084346
 C          7.5563260851        0.4551629638        0.5632308873
 C          6.7399441245        0.8816827991        1.5994302151
 C          5.4238777859        1.2330966301        1.3413437008
 H          4.7504400531        1.5646187958        2.1158053986
 H          7.1213602127        0.9412273589        2.6061476241
 H          8.5794312253        0.1812580074        0.7669582945
 H          7.7056973661        0.0461848370       -1.5358433012
 H          5.3353947132        0.6859942981       -1.9891828194
 H          2.0941078532        0.5068793683       -1.8842507060
 H          3.6775664463       -0.8789935125        1.0726533568
 H          2.5584126053       -2.5597709931        2.4981204864
 H          0.2823421855       -3.3311463389        1.9518501843
 C         -1.2880174270       -2.5822589781       -0.1244018448
 H         -1.5491616463       -3.3793003087        0.5842890564
 C         -1.3953741408       -3.1398318819       -1.5300584722
 C         -0.8589711278       -4.5104948543       -1.8081304839
 C         -2.3385786386       -4.2725212666       -1.7961049017
 H         -2.8737065336       -4.2869174689       -2.7337451215
 H         -2.9106878788       -4.6526443042       -0.9620452009
 H         -0.3750022103       -4.6912990236       -2.7555045030
 H         -0.4274339686       -5.0546345021       -0.9817112786
 H         -1.2932403244       -2.3906428612       -2.3034872833
 O         -1.8672001881       -0.2099277941       -1.8164090626
