  62
        -98.93968504
 C         -2.4677558672       -1.0618186358       -0.1573347919
 C         -3.7157819988       -1.0998430732        0.5104824332
 C         -4.8234879803       -0.4013984564       -0.1539109261
 C         -4.6005800820        0.2160246233       -1.3286229757
 C         -5.6217297224        1.0155833461       -2.0837174216
 C         -5.5746270661        2.4960658071       -1.6805617133
 C         -5.5877602529        2.7253720337       -0.1691604527
 H         -4.6626277779        2.3323108996        0.2592538975
 H         -5.5830166601        3.8050219072       -0.0040752093
 C         -6.7882029780        2.1023880771        0.5571545458
 H         -7.1863234820        2.8326779195        1.2648127731
 H         -7.5800983463        1.8804851573       -0.1590979873
 C         -6.4610674130        0.8402566599        1.3573930487
 H         -5.6062331070        1.0326392143        2.0108543803
 H         -7.3171770694        0.6124706176        1.9980933131
 C         -6.1618198812       -0.4161398232        0.5297162656
 H         -6.1386653135       -1.2677893996        1.2159238306
 H         -6.9629555268       -0.5796387595       -0.1937851171
 H         -4.6599855523        2.9360975105       -2.0846814399
 H         -6.4266399746        3.0050423155       -2.1348663858
 H         -5.4045220029        0.9315644062       -3.1498229725
 H         -6.6115766951        0.6067633639       -1.8907277126
 O         -3.3915983338        0.2223118421       -1.9446434686
 C         -2.2913558082       -0.4003937820       -1.3727769204
 O         -1.2447100810       -0.3002548865       -2.0398864523
 O         -3.8938556460       -1.6886636800        1.6108716699
 C         -1.2734718184       -1.7371723939        0.4953407861
 C         -0.2618407737       -0.6784860928        0.8595349127
 C         -0.6081081701        0.2621052392        1.8270112921
 C          0.2664351980        1.2724201110        2.1761138467
 C          1.5037341618        1.3729873438        1.5634743867
 C          1.8597885114        0.4403587804        0.5996412431
 C          0.9841040073       -0.5860494438        0.2621426113
 H          1.2729840683       -1.3009095568       -0.4921436764
 N          3.1026981173        0.5490902501       -0.0485486170
 S          4.4550635330        0.9141870215        0.8927021139
 O          4.4843844772        0.0723987093        2.0684396980
 O          4.4756112451        2.3345426415        1.1382357846
 C          5.7717466719        0.4745042363       -0.2238829837
 C          6.3613608770       -0.7709906782       -0.1193240144
 C          7.3667597495       -1.1130447646       -1.0099921013
 C          7.7603859338       -0.2103122748       -1.9863634096
 C          7.1587616293        1.0360895982       -2.0786728557
 C          6.1539613156        1.3851639978       -1.1905398768
 H          5.6641768409        2.3444829280       -1.2187642433
 H          7.4693080458        1.7356722932       -2.8378819108
 H          8.5430213998       -0.4789306418       -2.6782274161
 H          7.8384808731       -2.0799245568       -0.9392867117
 H          6.0294301377       -1.4374167102        0.6606711468
 H          3.2814455592       -0.2329036993       -0.6633954731
 H          2.1960605570        2.1574795070        1.8233942003
 H         -0.0154784256        1.9925101919        2.9300385147
 H         -1.5780651769        0.1888906783        2.3002976526
 H         -1.6599683620       -2.1720059666        1.4281509820
 C         -0.7274012347       -2.8510437377       -0.3711609488
 C          0.1295183991       -3.9168475864        0.2423068330
 C         -1.2664124040       -4.2380543301       -0.1977767670
 H         -1.4030325294       -4.8506709893       -1.0762303178
 H         -2.0215699249       -4.3877760818        0.5598521284
 H          0.9518599651       -4.3141335842       -0.3331728898
 H          0.3255072605       -3.8495310833        1.3018548692
 H         -0.5008612535       -2.5290742511       -1.3809056334
