  62
        -98.92990217
 C         -2.0652477068       -1.5278714112        0.1047597390
 C         -1.7257034117       -0.2914693250       -0.4907473043
 C         -2.8476882223        0.6272124617       -0.7647017296
 C         -4.1005472769        0.2602067513       -0.4474972366
 C         -5.3888617267        1.0100996917       -0.6783073409
 C         -5.3953594086        2.5173250307       -0.3889611789
 C         -4.4827036211        2.9611141390        0.7634594237
 H         -5.0595165321        3.5779936107        1.4550089357
 H         -4.1312850389        2.0901701634        1.3192476131
 C         -3.2823517876        3.7835551982        0.2894728902
 H         -2.8986012683        4.3620377369        1.1332265909
 H         -3.6227593484        4.4947553226       -0.4662419700
 C         -2.1140449877        2.9756270498       -0.2748858939
 H         -1.6155251093        2.4320311006        0.5325519790
 H         -1.3915665537        3.6818004246       -0.6916888821
 C         -2.4764202028        1.9534530737       -1.3641427150
 H         -3.2599217261        2.3326106503       -2.0159049332
 H         -1.5814186023        1.7720990947       -1.9660201083
 H         -5.1193576432        3.0624815004       -1.2905335145
 H         -6.4275428430        2.7895559775       -0.1620293934
 H         -5.6969779967        0.8432304179       -1.7146747109
 H         -6.1238495995        0.5119231535       -0.0414208130
 O         -4.3797102436       -0.9408365475        0.1354721085
 C         -3.3843193091       -1.8569690049        0.4179937390
 O         -3.7901427595       -2.9120286952        0.9472054877
 H          1.6728738711       -2.0984885799       -0.4917856375
 C          1.4467686284       -1.8063200958        0.5157686166
 C          0.1844152525       -1.9640801802        1.0645814287
 C         -0.0209845490       -1.5001163477        2.3661752934
 C          0.9924330947       -0.9038122103        3.0885954633
 C          2.2518980632       -0.7559698801        2.5335879422
 C          2.4721853701       -1.2105910356        1.2412155355
 N          3.7479182186       -1.1112068457        0.6509146121
 S          3.9505454798       -0.2529258682       -0.7740820145
 O          3.0981920072       -0.7909582886       -1.8003324943
 O          5.3738418120       -0.3086518981       -1.0327948404
 C          3.5000722782        1.4195784103       -0.3480614842
 C          4.5146109255        2.3158616208       -0.0693225451
 C          4.1871023198        3.5987665338        0.3367529850
 C          2.8541690371        3.9572944191        0.4699149190
 C          1.8500350417        3.0433079525        0.1916819908
 C          2.1675341578        1.7581194640       -0.2231078287
 H          1.3990890375        1.0356239893       -0.4509664464
 H          0.8126378786        3.3174629926        0.2968493135
 H          2.5949340220        4.9538585064        0.7914366324
 H          4.9680206904        4.3106072156        0.5510297715
 H          5.5356585464        1.9901380709       -0.1866910423
 H          4.4697056541       -0.8306453516        1.3006209948
 H          3.0522835000       -0.2961582830        3.0935114967
 H          0.8026186786       -0.5518136125        4.0913692888
 H         -1.0037603759       -1.6128296266        2.8050089357
 C         -1.0136787071       -2.5926560418        0.3983557514
 H         -1.4798852254       -3.2428646566        1.1579555561
 C         -0.8723606288       -3.4753250550       -0.8345063611
 C         -0.0947814836       -3.1530492798       -2.0725413797
 C          0.3267706640       -4.2975490579       -1.1967031903
 H          0.1565737117       -5.3007444556       -1.5594576761
 H          1.2224927992       -4.1968083052       -0.6054319456
 H          0.4985593918       -2.2527414809       -2.1023536610
 H         -0.5543874559       -3.3843349287       -3.0236555710
 H         -1.8328202505       -3.9557872975       -1.0150232985
 O         -0.5521834386        0.0433579310       -0.7900694312
