  62
        -98.93483399
 C         -2.2503880916       -1.2062148028        0.3804621033
 C         -2.5594067719       -0.2936176713       -0.6551144655
 C         -3.4954738870        0.7973619296       -0.3152484046
 C         -3.9697047529        0.9057738308        0.9388142458
 C         -4.8819532148        1.9327932934        1.5767594524
 C         -5.7155439123        2.8808188468        0.7181108446
 C         -6.8108155522        2.2043662304       -0.1053356271
 H         -7.5768461845        1.8281229390        0.5772871249
 H         -7.2747948425        2.9613095840       -0.7414556847
 C         -6.3547637511        1.0358741264       -0.9755227830
 H         -5.9905264400        0.2259290925       -0.3401307569
 H         -7.2296159179        0.6564296463       -1.5104097320
 C         -5.2854890226        1.3717264073       -2.0134024740
 H         -5.1780281424        0.5021381628       -2.6673127175
 H         -5.6187963332        2.2112758015       -2.6263904292
 C         -3.8916856507        1.6993703255       -1.4489015544
 H         -3.1583680873        1.5346966683       -2.2439025148
 H         -3.8183943175        2.7428266199       -1.1511923365
 H         -5.0704916400        3.4753956968        0.0778220313
 H         -6.2027174916        3.5756573963        1.4076696623
 H         -5.5488325917        1.3671867871        2.2352405878
 H         -4.2400407199        2.5332154251        2.2312740055
 O         -3.6044734203        0.0282467793        1.9191369765
 C         -2.7644962097       -1.0396271754        1.6684885829
 O         -2.5555446653       -1.7674163422        2.6594721661
 H          0.0287372678       -0.4671822178       -1.0752987310
 C          0.6471622891       -0.9826551449       -0.3548559983
 C          0.1013475196       -2.0247925850        0.3826438256
 C          0.9054434784       -2.6750429812        1.3105820566
 C          2.2236634504       -2.2921300201        1.4891292749
 C          2.7657902363       -1.2586879301        0.7462285390
 C          1.9676048642       -0.5969478059       -0.1779150821
 N          2.5083666147        0.4516432869       -0.9443756602
 S          3.2888480446        1.6915897434       -0.1227103868
 O          2.7691753005        1.8483332369        1.2168667064
 O          3.1920831769        2.8452378280       -0.9901925297
 C          4.9857498532        1.1543603698       -0.0642978808
 C          5.6419440081        1.0697808921        1.1479646272
 C          6.9650734904        0.6560647659        1.1660839962
 C          7.6046742269        0.3365756254       -0.0217963212
 C          6.9321244737        0.4294185094       -1.2313714043
 C          5.6102323323        0.8440550516       -1.2566597671
 H          5.0529508914        0.9336348767       -2.1741341163
 H          7.4328385791        0.1801696450       -2.1530238261
 H          8.6335263920        0.0133793733       -0.0048502463
 H          7.4895302541        0.5841487139        2.1053587942
 H          5.1017332540        1.3225468042        2.0465561354
 H          1.8528039297        0.8298831466       -1.6140248871
 H          3.7910069639       -0.9554172395        0.8824692925
 H          2.8363539258       -2.8039376513        2.2154198896
 H          0.4851401375       -3.4723755541        1.9060066119
 C         -1.3425630630       -2.4127077989        0.1939530677
 H         -1.6100333007       -3.0966574593        1.0146353005
 C         -1.6034035033       -3.1507091391       -1.1134178465
 C         -0.6148706318       -3.2414992411       -2.2334351040
 C         -0.8973150221       -4.4454004917       -1.3894497189
 H         -1.4595026108       -5.2620888016       -1.8161250874
 H         -0.1354824061       -4.7503124529       -0.6877289244
 H         -1.0009838754       -3.2079423089       -3.2409040594
 H          0.3389858861       -2.7517925822       -2.1179893833
 H         -2.6479999442       -3.0973799756       -1.4030109470
 O         -2.0827120188       -0.3568523011       -1.8186873732
