  62
        -98.94649209
 C         -1.5616684771       -1.0839367122        0.0295856345
 C         -2.6208162957       -0.8062026105        0.9311220324
 C         -3.3330900195        0.4578248518        0.7177490957
 C         -2.9315972668        1.2927907007       -0.2575701560
 C         -3.5269273947        2.6384885359       -0.5717173066
 C         -4.7687923507        2.5778032511       -1.4718263359
 C         -6.0355047382        2.0462684875       -0.8000209505
 H         -6.2131131467        2.5950710843        0.1253348378
 H         -6.8688857587        2.2629307047       -1.4713580110
 C         -6.0140038018        0.5386794415       -0.5112210745
 H         -5.2277916771        0.0653374875       -1.1039214498
 H         -6.9612467081        0.0941161140       -0.8248090731
 C         -5.8095582131        0.1779393644        0.9602822245
 H         -5.7698573315       -0.9111846655        1.0436450104
 H         -6.6624968537        0.5287203438        1.5454778411
 C         -4.5259554993        0.7486906955        1.5771395255
 H         -4.6303032105        1.8217813553        1.7351707669
 H         -4.3652976061        0.2656781276        2.5439860614
 H         -4.9679254694        3.5937771243       -1.8205774125
 H         -4.5372299864        1.9662229670       -2.3470050511
 H         -3.7738781713        3.1555049827        0.3558861070
 H         -2.7553707126        3.2088709266       -1.0934289591
 O         -1.8900520434        1.0054170819       -1.0812497927
 C         -1.1973160488       -0.1942674721       -0.9808292731
 O         -0.3018476229       -0.3282673353       -1.8365705621
 O         -2.9513424858       -1.5774316714        1.8697792570
 C         -0.7767066661       -2.3712987858        0.2270990860
 C          0.6072634841       -1.9792811596        0.6790593586
 C          0.8261552002       -1.6615337444        2.0169590791
 C          2.0553133311       -1.1917390504        2.4405664209
 C          3.0843580402       -1.0009788546        1.5343006003
 C          2.8691462674       -1.3025543543        0.1964488086
 C          1.6483577862       -1.8146415314       -0.2208134747
 H          1.4985148406       -2.0384520172       -1.2646759781
 N          3.8858779272       -1.0480342064       -0.7425511923
 S          4.6226880290        0.4526241124       -0.6436210646
 O          5.0044162334        0.7859994790       -1.9987095917
 O          5.7077953738        0.3859709200        0.3054613350
 C          3.3841050620        1.5915621435       -0.0409038909
 C          3.6885418632        2.3998433653        1.0363431169
 C          2.7331504463        3.2872299759        1.5041476461
 C          1.4904858114        3.3485480830        0.8925541531
 C          1.2014434980        2.5321646744       -0.1894059802
 C          2.1543799605        1.6463377042       -0.6660663949
 H          1.9259393164        0.9986648262       -1.4979413208
 H          0.2336298540        2.5630230810       -0.6652670857
 H          0.7417553155        4.0327506513        1.2598967398
 H          2.9572617872        3.9233271613        2.3452462788
 H          4.6632479365        2.3117835884        1.4883823793
 H          3.6045157987       -1.2399418362       -1.6936026028
 H          4.0439268296       -0.6157614616        1.8397509636
 H          2.2118618594       -0.9575872335        3.4823555810
 H          0.0117229466       -1.7731418137        2.7188116089
 H         -1.2766177559       -2.8944279312        1.0528248109
 C         -0.8008370792       -3.2583428115       -0.9992768049
 C         -0.3558709151       -4.6844949147       -0.8792196222
 C         -1.8059027099       -4.3661924703       -1.0823444325
 H         -2.2533310459       -4.5845783838       -2.0405351284
 H         -2.4794898897       -4.4942161622       -0.2477384968
 H          0.1940833725       -5.1252128041       -1.6967172013
 H         -0.0430332124       -5.0268088039        0.0955868477
 H         -0.5733102975       -2.7323177632       -1.9184724410
