  62
        -98.92936100
 C          1.4702527571        0.3804833466        0.5673342039
 C          2.3741638075        0.5601098095       -0.5053308776
 C          3.5999892156       -0.2694497029       -0.4876586037
 C          3.7806034199       -1.1489698176        0.5136152934
 C          4.9565446101       -2.0567061995        0.7593030787
 C          6.1755625013       -1.3079740475        1.3228556624
 C          6.4807599129        0.0257316007        0.6458595992
 H          5.6054428805        0.6733847016        0.7206101196
 H          7.2878633470        0.5049082201        1.2062962264
 C          6.9185729405       -0.0702257100       -0.8136029511
 H          7.1817686055        0.9390824422       -1.1401543784
 H          7.8192046424       -0.6850191770       -0.8776162420
 C          5.8794476804       -0.6283338756       -1.7881384991
 H          6.2354896606       -0.4146568498       -2.8002854533
 H          5.8087381356       -1.7098634193       -1.7091050518
 C          4.4947376622        0.0014549853       -1.6734728183
 H          4.5915310672        1.0912469655       -1.7345016951
 H          3.9077092222       -0.2847811317       -2.5546574182
 H          5.9885466042       -1.1086551169        2.3809429585
 H          7.0454555474       -1.9631557724        1.2521990080
 H          4.6323827864       -2.7968836229        1.4944132903
 H          5.2142945807       -2.5882771638       -0.1519680685
 O          2.8705975188       -1.3001057517        1.5198407050
 C          1.7116593571       -0.5553537902        1.5748545156
 O          0.9840849257       -0.8074033137        2.5589148876
 O          2.1971214301        1.3749262990       -1.4450857738
 C          0.1679329249        1.1653064532        0.6820527765
 C         -0.6568583147        0.9622007388       -0.5649460004
 C         -0.6815163629        1.7890536753       -1.6821077807
 C         -1.4656623184        1.4688357368       -2.7773280600
 C         -2.2573993608        0.3357093754       -2.7849115773
 C         -2.2305102853       -0.5094144491       -1.6824206269
 C         -1.4283705573       -0.1959587916       -0.5966556650
 H         -1.3918293674       -0.8831588743        0.2362760497
 N         -3.0212480838       -1.6692678612       -1.6380761018
 S         -3.7694335105       -2.0682718297       -0.1957228837
 O         -2.8440274633       -2.7426517936        0.6796144838
 O         -4.9315333001       -2.8349863461       -0.5932526069
 C         -4.2739053754       -0.5049750303        0.5019821104
 C         -5.2041162350        0.2415871784       -0.1950140416
 C         -5.5727230905        1.4828754593        0.2963344817
 C         -5.0040652465        1.9568815631        1.4688358004
 C         -4.0782895790        1.1923583763        2.1612095026
 C         -3.7073086717       -0.0516582250        1.6753670731
 H         -2.9855595203       -0.6716151134        2.1843953442
 H         -3.6350785191        1.5597052306        3.0729609437
 H         -5.2837136000        2.9273094950        1.8472191231
 H         -6.2964148878        2.0778248323       -0.2369204091
 H         -5.6304493464       -0.1621835455       -1.0988655529
 H         -3.6418235290       -1.7862860654       -2.4257125674
 H         -2.8761650592        0.0970551819       -3.6362989925
 H         -1.4632199199        2.1208213409       -3.6375869921
 H         -0.0624736152        2.6659610199       -1.7271190567
 H         -0.3791006190        0.6545405396        1.4901561618
 C          0.4200310395        2.5718449992        1.2103666642
 C          1.0645173157        3.6906461315        0.4509892282
 C         -0.3849875893        3.7758910172        0.8250321950
 H         -0.6668879622        4.4661778528        1.6060611429
 H         -1.1263393163        3.6612446221        0.0507631362
 H          1.7670983831        4.3128931751        0.9877796315
 H          1.3511945079        3.5151962980       -0.5724226230
 H          0.7067149624        2.5080354410        2.2579478115
