  62
        -98.94530092
 C          2.1383985270        0.8842288436        0.0784939785
 C          2.8698305546        0.2381943699        1.1026767127
 C          3.5930580733       -0.9777757410        0.7076903486
 C          3.4837146597       -1.4255874112       -0.5566697688
 C          4.2040527416       -2.6217650426       -1.1067243089
 C          5.5536548048       -2.2223303595       -1.7198724756
 C          6.4069696882       -1.3377694417       -0.8107545084
 H          5.9078433248       -0.3748235737       -0.6806606656
 H          7.3460612638       -1.1450232478       -1.3337524582
 C          6.7043110087       -1.9444630898        0.5676549514
 H          7.7617907426       -1.7949750572        0.7951291594
 H          6.5268589023       -3.0202819544        0.5449477483
 C          5.9098733755       -1.3242593130        1.7184898167
 H          6.0108719999       -0.2364864282        1.6885896785
 H          6.3486434854       -1.6682832113        2.6588227397
 C          4.4154622538       -1.6679899537        1.7595911583
 H          4.0216674333       -1.3240827375        2.7206872596
 H          4.2845259759       -2.7506981388        1.7031298525
 H          5.3636168199       -1.6780782280       -2.6478348982
 H          6.1031632094       -3.1326863661       -1.9661655881
 H          4.3551804835       -3.3475026507       -0.3098191023
 H          3.5803655728       -3.0715592256       -1.8813322016
 O          2.7317233497       -0.8047772526       -1.5015289873
 C          2.0490914353        0.3691865475       -1.2151077987
 O          1.4134182875        0.8417364563       -2.1756866152
 H         -0.0897829162        0.1131769735        1.2296655260
 C         -0.6931985322        0.8166261314        0.6679567480
 C         -0.0929364574        1.9603561924        0.1549641957
 C         -0.8782751686        2.8527143042       -0.5620242149
 C         -2.2216728487        2.5914995989       -0.7715618748
 C         -2.8115346215        1.4475155766       -0.2671863692
 C         -2.0367795267        0.5512161374        0.4578086766
 N         -2.6288312781       -0.6104065877        0.9876857223
 S         -3.4977217663       -1.5938381728       -0.0629085250
 O         -3.4474364296       -2.9129332721        0.5307602861
 O         -3.0188052669       -1.4809782473       -1.4210509118
 C         -5.1608015572       -0.9686390646        0.0575331516
 C         -5.7487713115       -0.9205170606        1.3064930175
 C         -7.0436579318       -0.4400591481        1.4179947160
 C         -7.7257411926       -0.0211487084        0.2851752631
 C         -7.1227053412       -0.0792295581       -0.9619250297
 C         -5.8269718733       -0.5579886637       -1.0803973428
 H         -5.3148277227       -0.6165314316       -2.0277975504
 H         -7.6542877084        0.2464344479       -1.8416004019
 H         -8.7333418202        0.3530412116        0.3746886721
 H         -7.5157659408       -0.3933233940        2.3860744804
 H         -5.1851494787       -1.2592604719        2.1596507594
 H         -1.9914987374       -1.1684580281        1.5380020085
 H         -3.8551199662        1.2374200379       -0.4351947390
 H         -2.8178341036        3.2896318531       -1.3390457798
 H         -0.4368348829        3.7475735741       -0.9685210329
 C          1.3818539462        2.1592610225        0.4053357451
 H          1.5274908967        2.3170872811        1.4845915332
 C          1.9751712881        3.3337279148       -0.3435493983
 C          1.8898964402        4.7160573930        0.2291402019
 C          3.2029247968        3.9947777494        0.2051602411
 H          3.9635368925        4.3250613426       -0.4863539922
 H          3.5963705207        3.6137016109        1.1363898495
 H          1.3941206237        4.8324909356        1.1808106980
 H          1.7509214067        5.5463067176       -0.4465803184
 H          1.9085769543        3.2163947031       -1.4194497751
 O          2.9101491429        0.6550739815        2.2924073587
