  62
        -98.94012515
 C         -2.5255591550       -0.1118130421       -0.4795989533
 C         -2.2074689277       -0.7918339421        0.7189794878
 C         -1.7132234204       -2.1731840974        0.5793247806
 C         -1.5366243808       -2.6878716496       -0.6493418025
 C         -1.0773251483       -4.0687481757       -1.0522620653
 C          0.0180940312       -4.7410565652       -0.2189995479
 C          1.1206439220       -3.7985564832        0.2850165436
 H          2.0937887841       -4.2088503175        0.0075934818
 H          1.0329148389       -2.8186887912       -0.1899177653
 C          1.0965518968       -3.6128385676        1.8032974906
 H          2.0782959439       -3.2604856620        2.1277172672
 H          0.9165700641       -4.5793507374        2.2803335424
 C          0.0664420662       -2.6007571398        2.2989065201
 H          0.3386890015       -1.6054200215        1.9381597224
 H          0.1072687893       -2.5768631261        3.3908890396
 C         -1.3830790540       -2.8765387951        1.8650808962
 H         -1.5803434649       -3.9443901166        1.8009152622
 H         -2.0482620596       -2.4447222712        2.6180783211
 H          0.4597275949       -5.5131236989       -0.8520644104
 H         -0.4321726864       -5.2517130487        0.6310548466
 H         -0.7329561678       -3.9590459192       -2.0841392134
 H         -1.9571242337       -4.7198287826       -1.0768508233
 O         -1.8239333407       -1.9803708994       -1.7822189465
 C         -2.3112304124       -0.6879175412       -1.7286480417
 O         -2.5203693701       -0.1682261666       -2.8464029914
 O         -2.3512809872       -0.2806147739        1.8605815920
 C         -2.9963915249        1.3321370798       -0.4334033074
 C         -1.9158449019        2.1631285252        0.2166343087
 C         -2.1435816766        3.0788750317        1.2348933254
 C         -1.0821984274        3.7483429270        1.8207242133
 C          0.2192641567        3.5061432928        1.4221365801
 C          0.4541800424        2.6072636349        0.3870264089
 C         -0.6122961339        1.9705560852       -0.2231468046
 H         -0.4190826493        1.2781011069       -1.0313101056
 N          1.7575593492        2.3305200054       -0.0619794313
 S          2.0654910360        0.7503158668       -0.5834909254
 O          1.7656039002        0.6661226516       -1.9926243733
 O          1.4038457777       -0.2008671306        0.2764615444
 C          3.8315468414        0.6673284821       -0.3495813510
 C          4.3405352614       -0.0097273043        0.7420368915
 C          5.7137868043       -0.0449587339        0.9284044646
 C          6.5491193492        0.5974011513        0.0270508286
 C          6.0232860536        1.2729273909       -1.0645974637
 C          4.6516235153        1.3100036901       -1.2580836334
 H          4.1970159914        1.8120879091       -2.0962020326
 H          6.6758678723        1.7688537049       -1.7647942805
 H          7.6171128570        0.5692250900        0.1745774958
 H          6.1249168245       -0.5725106663        1.7738838563
 H          3.6503827229       -0.4980658325        1.4114900039
 H          2.4713136653        2.6619497294        0.5728451682
 H          1.0465608376        4.0043583630        1.9042373785
 H         -1.2709995499        4.4523848649        2.6169868500
 H         -3.1484909169        3.2558638871        1.5815355251
 H         -3.0952763158        1.6529463194       -1.4814158871
 C         -4.3443929493        1.4426701114        0.2458821220
 C         -5.2792067264        2.5577751464       -0.1119696603
 C         -5.5811153882        1.1569437465       -0.5498476941
 H         -6.3909347034        0.6274237269       -0.0710881559
 H         -5.4505636533        0.9045626218       -1.5924256004
 H         -5.8877036650        2.9907092661        0.6674931023
 H         -4.9525528833        3.2623598054       -0.8618493118
 H         -4.3200219347        1.1000763773        1.2736953826
