  62
        -98.94549867
 C         -1.7317143680       -1.4296464816        0.1924741664
 C         -1.5224297437       -0.1096389760       -0.2761992738
 C         -2.5189891898        0.8835392433        0.1527159298
 C         -3.5213374130        0.5070534806        0.9670387953
 C         -4.6274094738        1.4051911707        1.4386052108
 C         -5.8314854327        1.3515000761        0.4879185970
 C         -5.4631644295        1.5301200882       -0.9849488787
 H         -6.3928027626        1.5059692446       -1.5578164485
 H         -4.8647292834        0.6753502889       -1.3084134868
 C         -4.7035720875        2.8272729220       -1.2961806237
 H         -4.8352001659        3.5380460276       -0.4796274105
 H         -5.1357593213        3.2792843259       -2.1915104408
 C         -3.2100395724        2.6376557380       -1.5682635412
 H         -2.8217648964        3.5695630556       -1.9875652304
 H         -3.0723974735        1.8577255980       -2.3213010563
 C         -2.3471968009        2.2895050464       -0.3486269824
 H         -2.5351025813        3.0085738591        0.4508908622
 H         -1.2986071441        2.3674222461       -0.6485139801
 H         -6.5404679423        2.1267048972        0.7844771289
 H         -6.3213567653        0.3817865264        0.6032346707
 H         -4.2546650055        2.4249188234        1.5115209364
 H         -4.9429734739        1.0714319747        2.4285470493
 O         -3.6674716366       -0.7631706199        1.4243224867
 C         -2.7848000741       -1.7601799082        1.0471164670
 O         -3.0362331158       -2.8815075054        1.5329659352
 O         -0.5632968555        0.2283671104       -1.0171338943
 C         -0.7713987723       -2.5442932185       -0.1904194732
 C          0.5895557255       -2.1966258555        0.3594943931
 C          0.7905601912       -2.2629670247        1.7357287757
 C          1.9996613579       -1.8917661483        2.2920386648
 C          3.0300197982       -1.4322629733        1.4894477759
 C          2.8337121705       -1.3495507755        0.1180032249
 C          1.6250594427       -1.7446047752       -0.4413962164
 H          1.4890936026       -1.6713036782       -1.5083418101
 N          3.8668074925       -0.8665876769       -0.7080083678
 S          4.5689896237        0.6013888789       -0.3146402710
 O          5.2572991073        1.0208580314       -1.5146563298
 O          5.3893135215        0.4336184818        0.8591623304
 C          3.2182385952        1.7094752590        0.0392444617
 C          2.8158238124        1.9018217045        1.3450084033
 C          1.7424122480        2.7407535639        1.5963326669
 C          1.0967474251        3.3713010615        0.5447548801
 C          1.5129166455        3.1666685261       -0.7614723011
 C          2.5798474588        2.3231129335       -1.0195093467
 H          2.9360759835        2.1440779486       -2.0212890782
 H          1.0067756107        3.6559918674       -1.5783435139
 H          0.2636383568        4.0268392624        0.7447695574
 H          1.4121702825        2.8987525735        2.6106890144
 H          3.3504802182        1.4045017389        2.1373398989
 H          3.6239940149       -0.8740732924       -1.6885630852
 H          3.9778741044       -1.1315333966        1.9054937055
 H          2.1427381242       -1.9565842569        3.3601536700
 H         -0.0217535565       -2.6038241252        2.3634749867
 H         -1.1302771135       -3.4456217513        0.3243816153
 C         -0.7932587455       -2.7938023028       -1.6835501916
 C         -0.2430336321       -4.0769665489       -2.2276127815
 C         -1.7213733452       -3.8313259520       -2.2363647121
 H         -2.2070051612       -3.6377287361       -3.1811869568
 H         -2.3363518206       -4.3755382591       -1.5344272205
 H          0.2861695461       -4.0564224297       -3.1682585950
 H          0.1481645585       -4.7911520062       -1.5189250587
 H         -0.6574479428       -1.8920492232       -2.2685541793
