  62
        -98.94041789
 C         -1.7648761810       -0.5804323901        1.0498109808
 C         -1.9369371709       -0.3270577913       -0.3337618494
 C         -3.3091018009       -0.4791396218       -0.8453977294
 C         -4.2950582709       -0.8436610811       -0.0069872091
 C         -5.7405396109       -0.9799332715       -0.3865430291
 C         -6.4982606409        0.3362597087       -0.1623349503
 C         -5.8002132509        1.5598750782       -0.7562956514
 H         -6.4394291709        2.4242440584       -0.5631516222
 H         -4.8617942309        1.7296107587       -0.2232000615
 C         -5.5155340808        1.4605135468       -2.2614589213
 H         -6.1386908208        0.6832348564       -2.7053413206
 H         -5.7925152008        2.4060659264       -2.7324425522
 C         -4.0501624508        1.1992651565       -2.6152404609
 H         -3.4127494908        1.9200762770       -2.0965392216
 H         -3.9257186307        1.3659020256       -3.6885362511
 C         -3.5303594108       -0.2106676232       -2.3073944896
 H         -4.2028915007       -0.9541615936       -2.7398742790
 H         -2.5504245607       -0.3129921736       -2.7824634195
 H         -7.4958217509        0.2386149483       -0.5944995503
 H         -6.6080906310        0.4936521797        0.9132350995
 H         -5.8107570008       -1.2786911724       -1.4305439588
 H         -6.1881902409       -1.7568036809        0.2356246116
 O         -4.0911996810       -1.0803564299        1.3145324511
 C         -2.8346648810       -0.9296064893        1.8778616211
 O         -2.7995455111       -1.1278714482        3.1089298013
 O         -1.0073648808        0.0084730480       -1.1108440797
 C         -0.4135215310       -0.4172082694        1.7243984408
 C          0.2439295190        0.8586492402        1.2590470496
 C         -0.4251595210        2.0643862203        1.4573704185
 C          0.1312857590        3.2581128000        1.0435360974
 C          1.3786953490        3.2789378694        0.4437495075
 C          2.0569620790        2.0833938093        0.2469803186
 C          1.4864778590        0.8831014496        0.6480945097
 H          2.0192093891       -0.0338023805        0.4623990406
 N          3.3144964591        2.0636314787       -0.3723485313
 S          4.4917696491        1.0047915192        0.1588017598
 O          4.4119035090        0.7894264105        1.5854409800
 O          5.7343165591        1.5696713988       -0.3248217307
 C          4.1821859991       -0.5179907316       -0.7097795289
 C          3.7726827592       -0.4715291628       -2.0272949189
 C          3.5807581793       -1.6621200934       -2.7095954079
 C          3.8086042393       -2.8715546528       -2.0710976367
 C          4.2232717492       -2.9012003516       -0.7484461567
 C          4.4126319191       -1.7138097210       -0.0588107178
 H          4.7223996391       -1.6911993000        0.9740182922
 H          4.3973604992       -3.8427906511       -0.2519837058
 H          3.6581074893       -3.7965361933       -2.6051967159
 H          3.2522993294       -1.6432152843       -3.7362215679
 H          3.6000376492        0.4843472568       -2.4926930798
 H          3.6942077291        2.9682028385       -0.6090923221
 H          1.8188531490        4.2115124692        0.1243686067
 H         -0.4046768611        4.1832032901        1.1957230166
 H         -1.3973140411        2.0489078007        1.9327390184
 H         -0.6430753311       -0.2992843585        2.7970966906
 C          0.4935400490       -1.6330931595        1.6077542619
 C         -0.0773149010       -3.0154716796        1.5107663731
 C          0.6272512591       -2.4117930907        0.3349490926
 H          1.6025553791       -2.7920138109        0.0685948630
 H          0.0403758192       -2.0887635015       -0.5097024077
 H          0.4119234890       -3.8092590791        2.0548979039
 H         -1.1528169809       -3.1108151997        1.4736528632
 H          1.3904703690       -1.5249643990        2.2114736219
