  62
        -98.94043569
 C         -2.5453114806       -1.2647642695        0.1310017996
 C         -3.3981775606       -0.5961367000        1.0488883998
 C         -4.3481131306        0.3636391203        0.4781478203
 C         -4.3893806505        0.5452429710       -0.8538152097
 C         -5.3184843605        1.4676143713       -1.5952311392
 C         -4.8347271304        2.9230034414       -1.6571675285
 C         -4.9310178705        3.6971896407       -0.3418477282
 H         -4.7709958804        4.7509666908       -0.5784635976
 H         -5.9403636705        3.6036653806        0.0599123518
 C         -3.9094999105        3.2696371102        0.7214631817
 H         -3.4517276805        4.1570360300        1.1641801121
 H         -3.1068277205        2.6990498304        0.2481605914
 C         -4.4941509606        2.4428427397        1.8668258113
 H         -5.2028924306        3.0508567694        2.4333004615
 H         -3.6780784206        2.1623056893        2.5375710812
 C         -5.2022580506        1.1572620499        1.4198698406
 H         -5.3838290206        0.5404058695        2.3032837303
 H         -6.1592127706        1.3957521601        0.9561664207
 H         -5.4457280604        3.4373698617       -2.4025757683
 H         -3.8011788204        2.9327914615       -2.0112070085
 H         -6.3092161705        1.4312921211       -1.1413315193
 H         -5.3887617304        1.0841075218       -2.6154609694
 O         -3.5732242905       -0.1292268886       -1.7046139299
 C         -2.6172582905       -1.0272764489       -1.2418978803
 O         -1.9257160705       -1.5231988885       -2.1525457105
 O         -3.3703947706       -0.8030563106        2.2908985397
 C         -1.5568447906       -2.2529873998        0.7244613791
 C         -0.2125977806       -1.6144580200        0.9654359595
 C          0.4254578393       -1.7298306906        2.1945722694
 C          1.6690222393       -1.1569795007        2.3984637998
 C          2.2990268194       -0.4578198502        1.3847141101
 C          1.6698847994       -0.3363831796        0.1523510902
 C          0.4238064094       -0.9122708395       -0.0490013402
 H         -0.0558724505       -0.8262550190       -1.0134143401
 N          2.2955753495        0.3815232309       -0.8830222295
 S          3.8712448295       -0.0459823990       -1.2821461996
 O          4.0419738696        0.3652037217       -2.6582229994
 O          4.1303922595       -1.4365761191       -0.9884015903
 C          4.8686088495        0.9966998505       -0.2390058391
 C          5.8241865394        0.4375898701        0.5866108107
 C          6.5940887794        1.2729741497        1.3813073111
 C          6.3962314395        2.6444489597        1.3356583618
 C          5.4337245095        3.1901988301        0.4990705320
 C          4.6616603895        2.3610405605       -0.2986664684
 H          3.9055876595        2.7437335509       -0.9639243183
 H          5.2823138995        4.2571397602        0.4663284125
 H          6.9953788394        3.2923173694        1.9558050321
 H          7.3429500094        0.8509576694        2.0320524009
 H          5.9382866894       -0.6346775599        0.5929194702
 H          1.7297214895        0.4467614113       -1.7175559795
 H          3.2672998494       -0.0098171203        1.5371287704
 H          2.1529439593       -1.2541643512        3.3581589897
 H         -0.0642736307       -2.2649134110        2.9949015592
 H         -1.9803515907       -2.5082123003        1.7087636390
 C         -1.4568363706       -3.5469765995       -0.0733747615
 C         -0.2421479806       -3.9627206791       -0.8428585617
 C         -0.6014372506       -4.6738878497        0.4252233780
 H         -0.9841049707       -5.6813565397        0.3659239975
 H          0.0147729393       -4.4832234901        1.2909227581
 H         -0.3970671606       -4.4644651487       -1.7861092719
 H          0.6216230394       -3.3154879391       -0.8388711613
 H         -2.4110799606       -3.8215933192       -0.5121666317
