  62
        -98.93438102
 C         -2.3025829112       -0.7369402597       -0.1451701748
 C         -3.5414398752       -1.0663514082        0.4492502184
 C         -4.7395647855       -0.3878000542       -0.0817604521
 C         -4.5897760087        0.4885943279       -1.0925981614
 C         -5.6474802420        1.3266271190       -1.7598552353
 C         -6.0714000864        2.5322727950       -0.9045361330
 C         -6.2742632328        2.2302825839        0.5780752372
 H         -5.3529954271        1.8114862080        0.9873400708
 H         -6.4527063004        3.1802361826        1.0888476019
 C         -7.4423604968        1.3012094616        0.8997856240
 H         -7.5145483313        1.2355040161        1.9884470005
 H         -8.3678965954        1.7501766570        0.5323789107
 C         -7.3401199065       -0.1203725401        0.3437838378
 H         -7.5687957753       -0.1422913397       -0.7182127713
 H         -8.1099003257       -0.7193455160        0.8392458085
 C         -6.0099575827       -0.8178801707        0.6119408111
 H         -6.1240546015       -1.8844981008        0.3831348908
 H         -5.7937459364       -0.7764490227        1.6855483851
 H         -6.9897285012        2.9469617345       -1.3233779304
 H         -5.2900862786        3.2920129292       -0.9841473747
 H         -5.2125775227        1.6968121533       -2.6907621535
 H         -6.5042060894        0.7107373920       -2.0162983346
 O         -3.3720856071        0.7728880553       -1.6378770592
 C         -2.2054372117        0.1842792346       -1.1869119689
 O         -1.1770089309        0.5553813703       -1.7842635862
 O         -3.6493260174       -1.8889973823        1.3993723939
 C         -1.0383020077       -1.3958851711        0.3757700996
 C         -0.0940673139       -0.3400336448        0.8946379374
 C         -0.5404301913        0.5145654625        1.9007183857
 C          0.2803636732        1.5048063018        2.4026101105
 C          1.5678958118        1.6594249959        1.9187140427
 C          2.0216376471        0.8156228351        0.9124136153
 C          1.1936339726       -0.1800731407        0.4106949831
 H          1.5728985829       -0.8195475428       -0.3681877881
 N          3.3102951640        0.9744002470        0.3789669563
 S          4.1589789950       -0.3840871032       -0.1474872328
 O          3.7195537149       -0.7374779066       -1.4736092804
 O          4.0898588624       -1.4299553354        0.8486951047
 C          5.8082023810        0.2908277062       -0.2235275000
 C          6.1403893837        1.0947417589       -1.2979358578
 C          7.4089696848        1.6495850078       -1.3523201158
 C          8.3192807455        1.3932043265       -0.3374213072
 C          7.9723415559        0.5829205658        0.7330328585
 C          6.7044268381        0.0258422199        0.7944621039
 H          6.3922033689       -0.6152794351        1.6030464784
 H          8.6831956014        0.3832685598        1.5185764258
 H          9.3061855818        1.8259050008       -0.3829619352
 H          7.6828904405        2.2780540147       -2.1843593606
 H          5.4028585396        1.2583268941       -2.0665664729
 H          3.8933046770        1.5879476515        0.9315449793
 H          2.2110957418        2.4332290905        2.3094577380
 H         -0.0808458880        2.1592893466        3.1817012882
 H         -1.5456116004        0.3893062679        2.2804162987
 H         -1.3599696860       -2.0147548224        1.2268853846
 C         -0.4271928107       -2.2969637509       -0.6751132805
 C          0.4803092138       -3.4161401072       -0.2635068676
 C         -0.8917188327       -3.7168476834       -0.7856929060
 H         -0.9861282792       -4.1530239575       -1.7687736536
 H         -1.6436395150       -4.0488196958       -0.0847420513
 H          1.3354272580       -3.6391568708       -0.8843299865
 H          0.6651621809       -3.5452636844        0.7924629827
 H         -0.1996927296       -1.7727053424       -1.5972186415
