  62
        -98.94785829
 C         -0.7617227343       -1.2525649143        0.5869649513
 C         -1.1644968831       -0.6926897846       -0.6494834870
 C         -2.1130060137        0.4241388544       -0.5596111241
 C         -2.4851686123        0.8902922494        0.6457835056
 C         -3.4738557371        1.9952127111        0.9023388707
 C         -4.9370081637        1.5295300083        0.8825100641
 C         -5.4984707952        1.2031564622       -0.5021631550
 H         -6.5811623948        1.1120543597       -0.3941229905
 H         -5.3082508994        2.0383499185       -1.1766152168
 C         -4.9549870934       -0.0933202042       -1.1190463312
 H         -4.4969755978       -0.7049518544       -0.3381020858
 H         -5.7825399074       -0.6733582062       -1.5339130457
 C         -3.9393627431        0.1155622384       -2.2426075471
 H         -4.4245987428        0.6086886119       -3.0876975665
 H         -3.5939789098       -0.8655529312       -2.5778108254
 C         -2.7096748092        0.9379756497       -1.8344943852
 H         -1.9536160685        0.8383149606       -2.6164360430
 H         -2.9782840217        1.9881410625       -1.7341611411
 H         -5.0353450676        0.6557589019        1.5310022404
 H         -5.5397262051        2.3318453815        1.3145060782
 H         -3.2543653828        2.3866276698        1.8977248428
 H         -3.3376818754        2.7921435558        0.1724112368
 O         -1.9858823778        0.3935930485        1.8103490897
 C         -1.1463271466       -0.7085108064        1.8109661588
 O         -0.8121177117       -1.1004881719        2.9492569756
 H          1.6120895757       -0.2955097098        0.5751276267
 C          2.0362929826       -1.0612438117       -0.0586120513
 C          1.3826552710       -2.2808441900       -0.1773786979
 C          1.9495788709       -3.2645154723       -0.9782019997
 C          3.1366358230       -3.0231122719       -1.6472770039
 C          3.7823138542       -1.8068020975       -1.5299028283
 C          3.2236395279       -0.8160255081       -0.7287319749
 N          3.8348255179        0.4361882040       -0.6226290511
 S          3.4556076346        1.5516468685        0.5442770937
 O          4.4710963460        2.5731667242        0.3924286243
 O          3.3608914962        0.9598657578        1.8589845750
 C          1.8900983924        2.2358627894        0.0463102272
 C          0.9961958837        2.6286256574        1.0218242150
 C         -0.1762902216        3.2616128388        0.6431382971
 C         -0.4353642976        3.4839501620       -0.6998170305
 C          0.4627718231        3.0668280538       -1.6689799256
 C          1.6415693683        2.4426013577       -1.2955357286
 H          2.3644724161        2.1145649002       -2.0237428917
 H          0.2513441744        3.2313871026       -2.7131441641
 H         -1.3408041164        3.9908740392       -0.9928863583
 H         -0.8770563229        3.5798615521        1.3980531140
 H          1.2308782968        2.4265105714        2.0557607601
 H          4.7525697519        0.5390212277       -1.0252512792
 H          4.7070348706       -1.6189715080       -2.0531311640
 H          3.5661806758       -3.7946846548       -2.2680414408
 H          1.4620880849       -4.2201576478       -1.0796116411
 C          0.1093418634       -2.4936918608        0.6034880674
 H          0.3846120260       -2.6605382461        1.6562729887
 C         -0.6980214863       -3.6814503516        0.1156277582
 C         -0.4544133192       -5.0509642126        0.6723443644
 C         -1.6988359871       -4.3023602185        1.0415726676
 H         -2.6428899888       -4.6342179257        0.6360004537
 H         -1.7728125289       -3.8886033636        2.0372711659
 H          0.3126844196       -5.1564986993        1.4247766864
 H         -0.5477430090       -5.9010027666        0.0131929838
 H         -0.9719491816       -3.5933805042       -0.9297171830
 O         -0.7702325343       -1.1136620470       -1.7671468187
