  62
        -98.94577049
 C         -2.2153668343       -1.1463105522        0.1929988653
 C         -1.8878428260       -0.2243905117       -0.8310754412
 C         -2.6316118953        1.0451789318       -0.8087073943
 C         -3.5468116529        1.2582049550        0.1544581591
 C         -4.3501951127        2.5163539156        0.3122257606
 C         -3.6429743481        3.5219030739        1.2313380978
 C         -2.1775599776        3.7629524909        0.8689060177
 H         -1.7878339976        4.5114493843        1.5624643660
 H         -1.6122576387        2.8437138249        1.0415760431
 C         -1.9507932421        4.2337949989       -0.5745249141
 H         -2.8839130071        4.6159119928       -0.9898437512
 H         -1.2373081048        5.0604864415       -0.5642458417
 C         -1.3783638675        3.1634313748       -1.5052861686
 H         -0.4935494581        2.7203437809       -1.0421880366
 H         -1.0541497711        3.6549887108       -2.4262798882
 C         -2.3402304424        2.0358665298       -1.9013969864
 H         -3.2674254006        2.4649444611       -2.2867333577
 H         -1.8693772795        1.4612234418       -2.7044873370
 H         -4.1881335478        4.4667139259        1.1944448040
 H         -3.6858549853        3.1457404763        2.2563263800
 H         -4.5165797178        2.9595078737       -0.6677410465
 H         -5.3146330563        2.2542195734        0.7506227471
 O         -3.8168492868        0.3567263910        1.1335432744
 C         -3.1598223814       -0.8633891662        1.1786663402
 O         -3.4947527013       -1.5935854830        2.1341972414
 O         -1.0253018537       -0.4461995425       -1.7178721364
 C         -1.5346892470       -2.5023346463        0.2354328129
 C         -0.0338843927       -2.3542673110        0.3025254575
 C          0.8405387064       -3.1670906739       -0.4078629099
 C          2.2096736492       -2.9951036457       -0.2949901852
 C          2.7373742579       -2.0090328441        0.5175856384
 C          1.8711125221       -1.1866008383        1.2272392011
 C          0.5008941964       -1.3716519064        1.1257280730
 H         -0.1694509473       -0.7318812552        1.6875887151
 N          2.3934403100       -0.1589939211        2.0297929852
 S          3.6575022160        0.7502697577        1.4155770575
 O          4.9067284048        0.0898697202        1.7056648651
 O          3.4965650534        2.0632111030        2.0022621582
 C          3.4214068353        0.8177833119       -0.3526629299
 C          4.4933239640        0.5624057506       -1.1840020192
 C          4.3035990814        0.6071872872       -2.5558371211
 C          3.0482907094        0.8922035236       -3.0701352654
 C          1.9810353367        1.1466470772       -2.2227870525
 C          2.1697722334        1.1177919997       -0.8513245186
 H          1.3506013118        1.3069453116       -0.1750660502
 H          0.9961707662        1.3403723573       -2.6158423419
 H          2.8958420274        0.9128824096       -4.1376094821
 H          5.1316040133        0.4108908387       -3.2178228887
 H          5.4468495526        0.3256279058       -0.7403386305
 H          1.6925312880        0.4293300859        2.4552703543
 H          3.8009742969       -1.8622924323        0.6164760031
 H          2.8760533726       -3.6353024977       -0.8521706396
 H          0.4496402440       -3.9358802569       -1.0535292269
 H         -1.8689429128       -2.9806908250        1.1683131713
 C         -2.0015506548       -3.3439366494       -0.9355523119
 C         -2.1171186937       -4.8319729596       -0.8036914890
 C         -3.3529606377       -3.9869408847       -0.8655283892
 H         -3.9579968233       -4.0175844882       -1.7592266608
 H         -3.9227865189       -3.8425016148        0.0413088381
 H         -1.8765303596       -5.4462500796       -1.6582914282
 H         -1.8543908383       -5.2732901333        0.1459176162
 H         -1.6911840491       -2.9350119749       -1.8901333216
