  62
        -98.93603326
 C          1.8632177449        1.4429493542       -0.2602459121
 C          1.8181253820        0.0759567930        0.1026363318
 C          3.0835287736       -0.5013906527        0.5794906561
 C          4.1799228289        0.2728371643        0.6653805735
 C          5.5363822106       -0.1433719252        1.1698131199
 C          6.2782375256       -1.1996650413        0.3278511216
 C          6.0735944149       -2.6442658672        0.8011032166
 H          7.0239844331       -3.1764551028        0.7238254480
 H          5.8074848283       -2.6330273267        1.8588624351
 C          5.0394005838       -3.4627322231        0.0221779439
 H          5.4802997410       -3.7859991388       -0.9236238298
 H          4.8176852504       -4.3598363000        0.6043840478
 C          3.7280908459       -2.7475540430       -0.3044293738
 H          3.8878990261       -2.0461054104       -1.1267179777
 H          3.0170870173       -3.4923696714       -0.6670594454
 C          3.1064781500       -1.9731125779        0.8740511523
 H          3.6505640669       -2.1723440581        1.7959903334
 H          2.0678301501       -2.2783504969        1.0166040953
 H          5.9920676047       -1.0966826626       -0.7185668041
 H          7.3422090332       -0.9671934857        0.3957470103
 H          5.4341685833       -0.5041349647        2.1959178025
 H          6.1305448764        0.7723929870        1.1967605136
 O          4.1727673172        1.5918391482        0.3261235904
 C          3.0260927115        2.2041419017       -0.1530259057
 O          3.1650457153        3.4119172333       -0.4356268259
 O          0.7780502627       -0.6264400876        0.0385482632
 C          0.6154690925        2.1209020921       -0.7953732132
 C         -0.5294207330        1.9670371392        0.1760884056
 C         -0.2992752451        2.1719074025        1.5339035869
 C         -1.3172508851        2.0269968807        2.4566889194
 C         -2.5948927889        1.6873784778        2.0465012513
 C         -2.8397464896        1.4946876533        0.6944150166
 C         -1.8135036445        1.6395841141       -0.2324969617
 H         -2.0239183017        1.4845641817       -1.2795025901
 N         -4.1455983778        1.1611379121        0.2752379467
 S         -4.7655880937       -0.3282971870        0.7267819415
 O         -6.1275925890       -0.3464648661        0.2433323228
 O         -4.5867048981       -0.4989839827        2.1453713836
 C         -3.8008513758       -1.5271727447       -0.1765364203
 C         -2.4712631511       -1.6984693047        0.1531821010
 C         -1.7042186427       -2.5774477812       -0.5947481772
 C         -2.2787727565       -3.2743331631       -1.6463108199
 C         -3.6185135423       -3.0980584606       -1.9595956391
 C         -4.3867750692       -2.2094751027       -1.2252631930
 H         -5.4285321276       -2.0324584812       -1.4391546933
 H         -4.0624923772       -3.6433696404       -2.7770650761
 H         -1.6767751407       -3.9568928544       -2.2257390276
 H         -0.6570105660       -2.6787941191       -0.3604407365
 H         -2.0379132883       -1.1452431136        0.9705411008
 H         -4.2920594231        1.2889139460       -0.7168456075
 H         -3.3959301799        1.5511653831        2.7541351954
 H         -1.1165237267        2.1818062070        3.5063134344
 H          0.6977272717        2.4373274126        1.8594466424
 H          0.8581431493        3.1911085987       -0.8713132473
 C          0.3041697604        1.5915788979       -2.1811534352
 C         -0.3567210831        2.4696225792       -3.2001640063
 C          1.0915164485        2.1125323656       -3.3442814059
 H          1.3794334221        1.4233895335       -4.1239119348
 H          1.8314805625        2.8727507482       -3.1392260605
 H         -1.0613461622        2.0251022241       -3.8872122041
 H         -0.6009772856        3.4801135078       -2.9087081584
 H          0.0587698190        0.5352907942       -2.1759140624
