  62
        -98.94626234
 C          1.7985453009        1.0854924797       -0.3048758803
 C          3.1497728310        1.3111214592        0.0517143196
 C          4.1023398906        0.2792103788       -0.3725572604
 C          3.6673925402       -0.7820643711       -1.0763092103
 C          4.5202900297       -1.9056128314       -1.5999825403
 C          4.7932556093       -3.0122284415       -0.5718853103
 C          5.7731627795       -2.6386610119        0.5410788097
 H          6.0385491091       -3.5631129019        1.0578534197
 H          6.6869281596       -2.2389032122        0.1002992497
 C          5.2158413099       -1.6425931116        1.5676314897
 H          4.1266206599       -1.6106300612        1.4896769597
 H          5.4543026298       -1.9874465417        2.5763040897
 C          5.7635457404       -0.2215109418        1.4343614396
 H          5.2765744507        0.4058196984        2.1854556496
 H          6.8360827004       -0.2210422722        1.6409267796
 C          5.5308503906        0.4191260782        0.0595258796
 H          6.1981327305       -0.0233650121       -0.6797299904
 H          5.7519600211        1.4865298381        0.1365673896
 H          3.8427334792       -3.3217601911       -0.1314767402
 H          5.2024986789       -3.8673272417       -1.1147319902
 H          3.9767601395       -2.3424645013       -2.4404651303
 H          5.4662289599       -1.5073356218       -1.9678887603
 O          2.3621046301       -0.9513036906       -1.4170870703
 C          1.3942916004       -0.0377376302       -1.0247757703
 O          0.2374715403       -0.3355557298       -1.3763512103
 O          3.5384588214        2.3223270490        0.6952832496
 C          0.7488629313        2.0991070301        0.1128594196
 C         -0.2960847089        1.4335469705        0.9731100297
 C          0.1174162308        0.7340058204        2.1053553197
 C         -0.7994061794        0.1050329908        2.9238896697
 C         -2.1510237194        0.1531155613        2.6269455698
 C         -2.5751688992        0.8523254315        1.5048025798
 C         -1.6510859889        1.4959244611        0.6908247497
 H         -2.0121851387        2.0243582612       -0.1748903303
 N         -3.9446946791        0.9427037620        1.1889456998
 S         -4.4833440294        0.4116959621       -0.3056515402
 O         -3.8532641091        1.1701188118       -1.3536957502
 O         -5.9253022593        0.5053463127       -0.2273956502
 C         -4.0058056500       -1.3060517381       -0.3687035801
 C         -2.6994781102       -1.6413665086       -0.6626769402
 C         -2.3364456007       -2.9796980587       -0.6350844901
 C         -3.2727552311       -3.9508748883       -0.3174269101
 C         -4.5812143109       -3.5952630578       -0.0251553900
 C         -4.9514359604       -2.2609269277       -0.0452412401
 H         -5.9569398403       -1.9377931473        0.1715179199
 H         -5.3096201012       -4.3516111675        0.2193324200
 H         -2.9805507215       -4.9891560285       -0.2991845200
 H         -1.3159158508       -3.2432395491       -0.8643658301
 H         -1.9779833799       -0.8792896689       -0.9125737502
 H         -4.5502816293        0.5705987922        1.9077644098
 H         -2.8704289696       -0.3422182584        3.2613563498
 H         -0.4614678796       -0.4324930993        3.7969414798
 H          1.1740991708        0.6921707900        2.3328128297
 H          1.2843246116        2.8348772899        0.7315124096
 C          0.1811830416        2.8081555203       -1.0980594404
 C         -0.3715922179        4.1946463005       -0.9656701604
 C          0.9283767420        3.9705632200       -1.6766142704
 H          0.9573561720        4.0824081599       -2.7501504704
 H          1.8409546521        4.2690706196       -1.1813873805
 H         -1.2404423978        4.4585006008       -1.5499869904
 H         -0.3426314777        4.6527844005        0.0114760996
 H         -0.3049181687        2.1326567404       -1.7940316303
