  62
        -98.93763183
 C         -2.6286126439       -1.1239309043        0.2096642319
 C         -2.7258840602       -0.2577469934       -0.9050698484
 C         -3.5433668675        0.9533973664       -0.7165355668
 C         -4.1419626529        1.1705199264        0.4670262776
 C         -5.0430678339        2.3131713076        0.8631935663
 C         -4.6146412589        3.7274444633        0.4450650803
 C         -3.0974073092        3.9556678884        0.3758480525
 H         -2.8486775438        4.8560393313        0.9409839988
 H         -2.5706858279        3.1226063519        0.8452280790
 C         -2.5858413211        4.1435430869       -1.0547659902
 H         -3.2794248760        4.7959554213       -1.5896495414
 H         -1.6202995870        4.6536691299       -1.0175666837
 C         -2.3879100719        2.8584806712       -1.8583649886
 H         -1.5300899092        2.3032322188       -1.4683768165
 H         -2.1451436230        3.1390803525       -2.8859037205
 C         -3.5898143670        1.9001045008       -1.8810102000
 H         -4.5294281631        2.4456756946       -1.9200850915
 H         -3.5066741965        1.2799330100       -2.7774625375
 H         -5.0524128250        3.9692994916       -0.5224040892
 H         -5.0528151534        4.4164613287        1.1690115068
 H         -6.0428076387        2.1107120401        0.4685363129
 H         -5.1099559276        2.2574607909        1.9523896735
 O         -4.0182063384        0.3070908253        1.5162039590
 C         -3.2554714263       -0.8446750910        1.4214217164
 O         -3.2091945437       -1.5207260015        2.4706712698
 H         -0.3318237824       -0.3921847962        1.1113876919
 C          0.2386436534       -0.9619674587        0.3864391329
 C         -0.3648351790       -2.0401231680       -0.2494064528
 C          0.3860856432       -2.7727363251       -1.1591730474
 C          1.6947448872       -2.4163181953       -1.4365005457
 C          2.2821056883       -1.3282094191       -0.8184271951
 C          1.5453586760       -0.5961953009        0.1037426398
 N          2.1293041391        0.5197905601        0.7308873321
 S          3.6085073113        0.3022489099        1.4980555940
 O          3.7589647605       -1.0515780788        1.9797157418
 O          3.6746053702        1.3499037522        2.4937439496
 C          4.8067760875        0.6353527050        0.2244888614
 C          5.7838056650       -0.2977814228       -0.0621602074
 C          6.7140025033       -0.0115688698       -1.0494430086
 C          6.6508714552        1.1958623543       -1.7279444639
 C          5.6642347921        2.1230556162       -1.4264375984
 C          4.7323736778        1.8440908615       -0.4395854166
 H          3.9521377895        2.5375959834       -0.1732892423
 H          5.6180172609        3.0607781293       -1.9564828927
 H          7.3748407482        1.4161642988       -2.4964794030
 H          7.4817892068       -0.7307999049       -1.2852366227
 H          5.7888437101       -1.2257011207        0.4870789934
 H          1.4938414846        1.0210823980        1.3348126308
 H          3.2973222948       -1.0420029012       -1.0395902043
 H          2.2640760895       -2.9921508591       -2.1499716795
 H         -0.0547813836       -3.6220185953       -1.6546168171
 C         -1.7902023567       -2.3843965191        0.1130546067
 H         -1.7849865062       -2.8254793507        1.1214665069
 C         -2.4349086079       -3.3660036933       -0.8440933444
 C         -2.2833040612       -4.8416818689       -0.6333692509
 C         -3.5996430876       -4.1777523393       -0.3656753391
 H         -4.4184053361       -4.3572662329       -1.0460585866
 H         -3.9078004231       -4.0423046344        0.6612826256
 H         -2.2017123834       -5.4809239775       -1.4995436670
 H         -1.7008583263       -5.1694171031        0.2146248677
 H         -2.4688672843       -2.9916515461       -1.8606664627
 O         -2.1629782479       -0.4829922208       -2.0066800327
