  62
        -98.93988478
 C          2.9548685714        0.1433897470        0.2390590406
 C          2.6350576086       -0.5144729460       -0.9752754826
 C          2.4523680337       -1.9679676566       -0.8752635714
 C          2.6915816815       -2.5952649976        0.2903398783
 C          2.5015910970       -4.0634157502        0.5576450474
 C          1.0598119629       -4.4267112283        0.9424874141
 C          0.0437777218       -4.3745947928       -0.2002356164
 H          0.4133146165       -4.9633081751       -1.0400633449
 H         -0.8668539747       -4.8560626652        0.1613230646
 C         -0.3070524861       -2.9583275001       -0.6808409655
 H         -1.3908478976       -2.8703307555       -0.7948451770
 H         -0.0057196684       -2.2325060144        0.0807418542
 C          0.3213544384       -2.5700256403       -2.0207995706
 H         -0.0887633587       -3.2024925968       -2.8106439132
 H          0.0488089932       -1.5339934112       -2.2417743560
 C          1.8528228399       -2.6720312405       -2.0545755874
 H          2.1637240823       -3.7154808804       -2.0812501672
 H          2.2091144624       -2.1729730709       -2.9585679799
 H          0.7369038515       -3.7617848513        1.7480186476
 H          1.0741952448       -5.4442730566        1.3393903995
 H          2.8070485582       -4.6424172894       -0.3136173012
 H          3.1556816409       -4.3179989690        1.3941204536
 O          3.1401023637       -1.9404582068        1.3958853451
 C          3.2093132224       -0.5542866103        1.4179828564
 O          3.5085413454       -0.0715955457        2.5301788268
 H          0.5454999589        0.3503928181        0.4316728812
 C          0.4335545442        1.3435065453        0.0125863249
 C          1.5479051197        2.1596804249       -0.1238718662
 C          1.3568220394        3.4385055785       -0.6347123761
 C          0.0945984875        3.8711176636       -1.0048779729
 C         -1.0034160438        3.0353457561       -0.9038855375
 C         -0.8226021951        1.7556741231       -0.4011474110
 N         -1.9227930665        0.8644285628       -0.3291571427
 S         -3.0120353382        1.1419434238        0.9326035550
 O         -3.2895668456        2.5525023676        1.0030394087
 O         -2.5217422207        0.5187274019        2.1463677200
 C         -4.4317099231        0.2519666327        0.3309374049
 C         -5.3894098590        0.9257603480       -0.4008628690
 C         -6.4636345204        0.2151886985       -0.9126701224
 C         -6.5578341420       -1.1503510566       -0.6903357824
 C         -5.5872835407       -1.8134036915        0.0456060276
 C         -4.5119744784       -1.1077740347        0.5615451161
 H         -3.7420179539       -1.5818973843        1.1494513107
 H         -5.6634078119       -2.8749443209        0.2183956752
 H         -7.3934457624       -1.7019832302       -1.0912508779
 H         -7.2212381387        0.7272677621       -1.4836502796
 H         -5.2756376515        1.9874935509       -0.5445977402
 H         -1.6030534032       -0.0922710078       -0.2372823149
 H         -1.9882182710        3.3562268974       -1.1998959848
 H         -0.0323657203        4.8701522468       -1.3932154876
 H          2.2029505415        4.0980303169       -0.7432051181
 C          2.9109190408        1.6564016870        0.3024367266
 H          3.0604654123        1.9255194203        1.3594265035
 C          4.0321412087        2.2649330410       -0.5179178583
 C          4.7277409196        3.5093376955       -0.0564457166
 C          5.4322857899        2.1888399032        0.0100575786
 H          6.2359665690        1.9929389243       -0.6834833277
 H          5.5689943941        1.7292968528        0.9786156165
 H          5.0516188206        4.2235747982       -0.7984594802
 H          4.4025370314        3.9520134881        0.8733377260
 H          3.8892161980        2.1207551302       -1.5824563621
 O          2.4676428109        0.0790912603       -2.0706976044
