  62
        -98.93557267
 C         -1.6736304265       -0.0259368189        0.6645208766
 C         -2.9272148298        0.3244081966        1.2136034570
 C         -4.1033755247        0.1695071983        0.3374585353
 C         -3.9295907138       -0.3104563135       -0.9072854199
 C         -4.9612082628       -0.5475286135       -1.9813027999
 C         -6.2783406583       -1.2057353541       -1.5427094785
 C         -7.4749928763       -0.2532573307       -1.5734009586
 H         -7.3920186585        0.3807472100       -2.4587306104
 H         -8.3883078346       -0.8428529731       -1.6803117717
 C         -7.6369899780        0.6273009376       -0.3354775112
 H         -8.4309113248        1.3483068974       -0.5443804905
 H         -7.9697561962        0.0129745963        0.5040868334
 C         -6.3821992123        1.3905108718        0.0932497690
 H         -6.7009028093        2.2495159526        0.6877732210
 H         -5.8585983919        1.7842443154       -0.7773785288
 C         -5.4197674953        0.5577056862        0.9533233944
 H         -5.1483809973        1.1219576761        1.8511876182
 H         -5.9239413205       -0.3456584794        1.3086907147
 H         -6.1645165169       -1.6395214846       -0.5505028124
 H         -6.4851587095       -2.0261924990       -2.2318287602
 H         -4.4601830228       -1.1774723282       -2.7199036033
 H         -5.1699143314        0.4042862949       -2.4765107330
 O         -2.6994240126       -0.6421327207       -1.3935299815
 C         -1.5468906671       -0.5093545743       -0.6371424134
 O         -0.5045476457       -0.8487871415       -1.2247423612
 O         -3.0608449865        0.7587396284        2.3907439366
 C         -0.4329714849        0.1150088176        1.5233791530
 C          0.5825565307        1.0414322465        0.8997344230
 C          0.1730726000        2.1117168950        0.1105686991
 C          1.0957375605        2.9534752029       -0.4822984874
 C          2.4521312714        2.7593173458       -0.2884296448
 C          2.8717285640        1.7145360885        0.5211480454
 C          1.9434358271        0.8647174421        1.1094467555
 H          2.2907932191        0.0528587216        1.7302563973
 N          4.2597215616        1.5174547478        0.7139019224
 S          5.0663283547        0.8263597313       -0.5847992255
 O          6.4500789912        0.7197261193       -0.1818254590
 O          4.7966050764        1.6072064707       -1.7634877963
 C          4.3465132554       -0.7996918141       -0.7165512567
 C          3.0912495646       -0.9254148337       -1.2768683312
 C          2.4750759708       -2.1671025101       -1.2711939051
 C          3.1258818582       -3.2564651648       -0.7126554897
 C          4.3916606780       -3.1163757550       -0.1620057578
 C          5.0058136209       -1.8748260013       -0.1523697978
 H          5.9838583611       -1.7176649688        0.2734490131
 H          4.8943247997       -3.9680554265        0.2677815173
 H          2.6402423604       -4.2199938921       -0.7051543474
 H          1.4796242249       -2.2538018050       -1.6775399301
 H          2.6016796883       -0.0653580338       -1.7042292728
 H          4.4721829643        0.9819900779        1.5452730799
 H          3.1871246017        3.3894670557       -0.7615732647
 H          0.7552571235        3.7685153752       -1.1032466012
 H         -0.8847194053        2.2720394384       -0.0468759100
 H         -0.7808189104        0.5715756964        2.4628070841
 C          0.1435748213       -1.2543576478        1.8307228427
 C          0.7578334683       -1.5465602305        3.1665872146
 C         -0.5718186978       -2.1366851878        2.8076950950
 H         -0.6318037564       -3.1944569618        2.6009807944
 H         -1.4550621410       -1.7337596862        3.2817912693
 H          1.6131998819       -2.2044105007        3.2078450109
 H          0.7734655573       -0.7520154806        3.8976968588
 H          0.5771864976       -1.7250665255        0.9553094737
