  62
        -98.93840006
 C         -0.6551340195       -1.6140894414       -1.0685747096
 C         -1.8890463593       -1.8987896217       -0.4359963195
 C         -2.9524647597       -0.8861230721       -0.5396674697
 C         -2.6995096401        0.2653366779       -1.1879803000
 C         -3.5710559505        1.4748239375       -1.4570000702
 C         -4.8996535805        1.6548252272       -0.7290309002
 C         -4.7714916106        1.9372911077        0.7678733297
 H         -4.3520046409        2.9384427078        0.8978251794
 H         -5.7737541506        1.9372907774        1.2028467997
 C         -3.8904448502        0.9701245982        1.5558324399
 H         -2.8567175803        1.0305764184        1.2057315398
 H         -3.8836704303        1.3013433184        2.5986428698
 C         -4.3428241697       -0.4887900820        1.5378680503
 H         -3.7127772095       -1.0336810016        2.2465608504
 H         -5.3762523597       -0.5574778323        1.8850075603
 C         -4.2322091995       -1.2008646723        0.1795871905
 H         -4.2209933492       -2.2790783123        0.3655717507
 H         -5.0922062596       -0.9861659928       -0.4504722396
 H         -5.5435480903        0.7977675870       -0.9030351200
 H         -5.3914499609        2.5186215869       -1.1850218804
 H         -2.9377689108        2.3458549978       -1.2583815605
 H         -3.7630654506        1.4706806972       -2.5358436602
 O         -1.5017107402        0.4928201981       -1.7962786701
 C         -0.4460630499       -0.4086308715       -1.7370254299
 O          0.5765519400       -0.0106689713       -2.3223673300
 H          1.2812153101       -0.2305301405        0.0404579900
 C          1.4618813304       -1.0081883002        0.7649226002
 C          1.1335495408       -2.3205096104        0.4565541305
 C          1.3888429012       -3.3099017401        1.3977785608
 C          1.9409499012       -2.9830166696        2.6247367607
 C          2.2180822607       -1.6663940194        2.9470106303
 C          1.9669032803       -0.6704370097        2.0096429201
 N          2.2157816599        0.6811714404        2.2852820797
 S          1.2139253495        1.8493409899        1.6177650995
 O          1.3895058191        3.0002766402        2.4824847392
 O         -0.1457047204        1.3809305194        1.4771904696
 C          1.9329648793        2.2239754697        0.0348258994
 C          1.1102169791        2.7004070692       -0.9645687807
 C          1.6660422289        3.0435139991       -2.1858689208
 C          3.0297407490        2.9043897395       -2.3845165709
 C          3.8440343792        2.4268788100       -1.3692938308
 C          3.2947313293        2.0859463202       -0.1443855907
 H          3.8972222495        1.7052713606        0.6637393894
 H          4.9042714292        2.3140911504       -1.5302378208
 H          3.4585560388        3.1640797594       -3.3396218309
 H          1.0294432988        3.4031711287       -2.9781068409
 H          0.0499075891        2.7719206189       -0.7776607907
 H          2.4676436799        0.8933692807        3.2394776397
 H          2.6153867507       -1.4080743490        3.9166743003
 H          2.1345922414       -3.7594160893        3.3492532009
 H          1.1293075916       -4.3342303302        1.1744742211
 C          0.4617312709       -2.6228947010       -0.8599598694
 H         -0.0409519888       -3.5981155711       -0.7576539391
 C          1.4360262409       -2.7265647009       -2.0218583194
 C          2.8185358207       -2.1553498705       -1.9853757196
 C          2.6232242112       -3.6388731505       -1.9238496692
 H          2.8894233714       -4.2338261306       -2.7841912190
 H          2.7984761314       -4.1259323702       -0.9765219291
 H          3.1982570905       -1.7131912706       -2.8931597297
 H          3.1325856206       -1.6417226001       -1.0903267697
 H          0.9267731308       -2.6881049514       -2.9790194394
 O         -2.0997126989       -2.9740567816        0.1902708108
