  62
        -98.94178298
 C         -2.5351516482       -0.3030642632        0.0287832135
 C         -2.2766808301       -1.3512661497       -0.8811728837
 C         -1.5769190070       -2.5323541279       -0.3465559213
 C         -1.2284535102       -2.5471511171        0.9521095675
 C         -0.4310907866       -3.5934464633        1.6815365026
 C          1.0680815698       -3.2471831597        1.6384013231
 C          1.8250349400       -3.8322118132        0.4477267207
 H          2.8466151567       -3.4471584872        0.4924611508
 H          1.8739821177       -4.9190935940        0.5499175168
 C          1.2377673836       -3.4921213139       -0.9240732885
 H          0.9678872166       -2.4338009551       -0.9549537128
 H          2.0228037388       -3.6377981955       -1.6694630884
 C          0.0300311117       -4.3638203853       -1.2991069960
 H         -0.0290026437       -5.2084954810       -0.6127819363
 H          0.1844371318       -4.7834563356       -2.2957144926
 C         -1.3177961564       -3.6335230219       -1.3395128562
 H         -2.1239868624       -4.3709917599       -1.2531304748
 H         -1.4380184240       -3.1550595488       -2.3170373389
 H          1.5396199163       -3.6120596242        2.5536001160
 H          1.1630221550       -2.1575676524        1.6286748608
 H         -0.7665910747       -3.5685785643        2.7203926168
 H         -0.6209007154       -4.5826619047        1.2752835496
 O         -1.5289533754       -1.5286147367        1.8045166683
 C         -2.1463536519       -0.3737906656        1.3664703275
 O         -2.3136323324        0.4908591712        2.2489919163
 O         -2.6059041693       -1.2967569890       -2.0996996600
 C         -3.1270061389        0.9984968890       -0.4836447659
 C         -2.1181307507        2.0979359829       -0.2514042904
 C         -2.4309611683        3.3471799162        0.2671793378
 C         -1.4276140013        4.2679507855        0.5200282921
 C         -0.1003982390        3.9583756021        0.2865662542
 C          0.2196132758        2.7175364934       -0.2539200892
 C         -0.7902265263        1.8189821079       -0.5480586916
 H         -0.5305210831        0.8606181667       -0.9739835298
 N          1.5524941266        2.3489028140       -0.5139507431
 S          1.9452521942        0.7159733211       -0.3019565481
 O          1.6153920687        0.0065531325       -1.5124874863
 O          1.3692442799        0.2127101442        0.9237653590
 C          3.7181599182        0.8281786893       -0.1474588704
 C          4.2873493757        0.8579196227        1.1114903913
 C          5.6641413268        0.9748091939        1.2224631171
 C          6.4434754929        1.0619637647        0.0786402291
 C          5.8578577064        1.0295122716       -1.1783672154
 C          4.4820711543        0.9115785086       -1.2962055439
 H          3.9815557248        0.8715458826       -2.2495430160
 H          6.4671262273        1.0939679985       -2.0653136860
 H          7.5144561056        1.1526514999        0.1677149764
 H          6.1217057312        0.9962151445        2.1983927876
 H          3.6411803229        0.7774141982        1.9712620233
 H          2.2215888034        2.9548512880       -0.0583758260
 H          0.6812183727        4.6648309025        0.5213840473
 H         -1.6823464225        5.2333227344        0.9306738961
 H         -3.4561342547        3.5934953320        0.4909535556
 H         -3.2526712198        0.8603067827       -1.5682827990
 C         -4.4793814349        1.2722616266        0.1377655311
 C         -5.5098525084        2.0613292233       -0.6120030608
 C         -5.6862800784        0.5853032629       -0.4250568249
 H         -6.4455998778        0.2362177838        0.2582997718
 H         -5.5332820081       -0.0625587590       -1.2759392574
 H         -6.1537618352        2.7265167338       -0.0568048145
 H         -5.2468282784        2.4182010405       -1.5962787562
 H         -4.4239233667        1.3873552207        1.2143862574
