  62
        -98.93286310
 C          1.6775921731       -0.3910749246       -1.2799350911
 C          1.8875223331       -0.2205274066        0.1105214965
 C          3.2775498950       -0.3728462209        0.5718825048
 C          4.2510020451       -0.6599756114       -0.3095070375
 C          5.7044499892       -0.9056435254       -0.0014976386
 C          6.4967391384        0.2960540341        0.5486908055
 C          6.5639737116        0.3618481840        2.0795013514
 H          6.4227001451       -0.6425262949        2.4805806453
 H          7.5670877363        0.6779285301        2.3730608010
 C          5.5785204390        1.3237400615        2.7502268853
 H          5.5583896079        1.0910932094        3.8171191175
 H          5.9498122694        2.3457024065        2.6442079816
 C          4.1481994994        1.2981206169        2.2106753180
 H          4.1088156584        1.8153286515        1.2488731974
 H          3.5158197094        1.8703809024        2.8922946001
 C          3.5557862117       -0.1121605922        2.0236727457
 H          2.5979767792       -0.1843367989        2.5424851067
 H          4.2264397847       -0.8684708646        2.4286990770
 H          6.0834951437        1.2199691717        0.1446946273
 H          7.5149285573        0.2040989417        0.1671201037
 H          5.7780652611       -1.7396032732        0.7001794252
 H          6.1512198323       -1.2237743355       -0.9457303115
 O          4.0074321411       -0.8032667577       -1.6417603531
 C          2.7327470962       -0.6463932126       -2.1591706368
 O          2.6686265984       -0.7546774156       -3.4003780888
 O          0.9755198679        0.0363295071        0.9365778673
 C          0.3011774004       -0.2310666040       -1.9023494666
 C         -0.3796508119        0.9911553672       -1.3378053514
 C          0.2321932633        2.2312702218       -1.5059683982
 C         -0.3458051585        3.3787620308       -1.0008341188
 C         -1.5577471471        3.3177213582       -0.3350045597
 C         -2.1776741557        2.0867180867       -0.1646368050
 C         -1.5863857508        0.9329291577       -0.6608318334
 H         -2.0723978486       -0.0136959474       -0.4970362069
 N         -3.3928446322        1.9863663114        0.5257365447
 S         -4.5485566357        0.8782054750        0.0560966961
 O         -4.5642280180        0.6958572809       -1.3772694662
 O         -5.7792369540        1.3671982543        0.6421063859
 C         -4.0972618068       -0.6431593111        0.8629722258
 C         -4.3369839181       -1.8367578718        0.2113210014
 C         -4.0343573285       -3.0261941482        0.8554880463
 C         -3.4991547592       -3.0008632620        2.1342058930
 C         -3.2642610767       -1.7936013986        2.7741261747
 C         -3.5692946142       -0.6011875844        2.1377287740
 H         -3.3941585708        0.3531143054        2.6055146862
 H         -2.8422713555       -1.7773656030        3.7660670779
 H         -3.2601262273       -3.9272813855        2.6323272495
 H         -4.2147299963       -3.9660347884        0.3578378782
 H         -4.7423820372       -1.8102745283       -0.7878225105
 H         -3.7966092424        2.8609894602        0.8258392379
 H         -2.0142949020        4.2138195087        0.0573230730
 H          0.1452412856        4.3315158609       -1.1319836334
 H          1.1773763351        2.2789908101       -2.0308847861
 H          0.4923929108       -0.0404286927       -2.9720021395
 C         -0.5619761800       -1.4819287797       -1.8332483028
 C          0.0573469619       -2.8465404075       -1.8629806561
 C         -0.6109916251       -2.3540610101       -0.6163166344
 H         -1.5602209194       -2.7866433901       -0.3359479123
 H          0.0036918754       -2.0721662339        0.2232450087
 H         -0.4302059221       -3.6168134483       -2.4413077826
 H          1.1360845045       -2.9050606174       -1.8803898674
 H         -1.4892783482       -1.3621516254       -2.3867455222
