  62
        -98.93817345
 C          1.9261316424        0.9089293098        0.3170657066
 C          2.3287006413       -0.2697476631       -0.3503754897
 C          3.7096952985       -0.7359508394       -0.1033048760
 C          4.4876324324       -0.0447026894        0.7499581680
 C          5.9214998217       -0.3056642725        1.1274718804
 C          6.9103900842        0.1218041263        0.0307302603
 C          6.5045135435       -0.2682672766       -1.3880749250
 H          5.5264745943        0.1614125546       -1.6118869233
 H          7.2231421227        0.1855614991       -2.0756372524
 C          6.4756884633       -1.7690941051       -1.6671358731
 H          6.2567521594       -1.8974574243       -2.7303415142
 H          7.4673930953       -2.1872391212       -1.4804496325
 C          5.4500431563       -2.5786246438       -0.8707742321
 H          5.3780742038       -3.5640884305       -1.3405550798
 H          5.7890436827       -2.7480612313        0.1476617371
 C          4.0402963281       -1.9955526468       -0.8673922076
 H          3.7268962483       -1.8122982478       -1.9015726802
 H          3.3485078556       -2.7583058853       -0.4891848937
 H          7.8880390108       -0.3039532059        0.2626917313
 H          7.0000144755        1.2103465149        0.0632898763
 H          6.1213352692        0.2847572971        2.0244439561
 H          6.0553408390       -1.3522147254        1.3846222741
 O          4.0467391829        1.0764632277        1.3893929032
 C          2.7753336209        1.5757876770        1.2019498674
 O          2.5181309903        2.6004872106        1.8652210724
 H         -1.1357518082       -0.3617207539       -1.0539754305
 C         -1.2271192608       -0.3540467811        0.0204610884
 C         -0.4564586560        0.5180142823        0.7726935490
 C         -0.5795003801        0.4891127143        2.1591378912
 C         -1.4522905992       -0.3883597268        2.7747894261
 C         -2.2183905899       -1.2607436593        2.0202107882
 C         -2.0951082930       -1.2445025560        0.6383745308
 N         -2.8882715278       -2.1220962413       -0.1352994158
 S         -4.5341838881       -1.8081797476       -0.0894265536
 O         -5.0405798041       -2.1493293641        1.2152715469
 O         -5.1053448314       -2.5249251114       -1.2068330871
 C         -4.6483785049       -0.0477860669       -0.3524911502
 C         -4.6095574878        0.8010263459        0.7353471853
 C         -4.6008077640        2.1690985788        0.5154736345
 C         -4.6296101576        2.6616546856       -0.7799883540
 C         -4.6724736531        1.7954921841       -1.8618065174
 C         -4.6745065218        0.4267476065       -1.6487755754
 H         -4.7101157000       -0.2810861027       -2.4615280500
 H         -4.6995562744        2.1828879571       -2.8676726024
 H         -4.6194031178        3.7270995169       -0.9482672238
 H         -4.5667002348        2.8446372293        1.3551623869
 H         -4.5918805278        0.3798517279        1.7269842995
 H         -2.5817709566       -2.1778910441       -1.0967453860
 H         -2.9139789346       -1.9450231779        2.4787669169
 H         -1.5374370589       -0.3957482033        3.8509714348
 H          0.0267524055        1.1639256558        2.7479568539
 C          0.5259769544        1.4756141518        0.1451753932
 H          0.5084392028        2.4059329392        0.7283980925
 C          0.2169914302        1.7994606018       -1.3015817338
 C         -0.9924202424        2.6247372490       -1.6215414374
 C          0.3785191964        3.2058382076       -1.7903733420
 H          0.7539177890        3.3623669349       -2.7905867242
 H          0.7126904111        3.9468933884       -1.0790712528
 H         -1.5628023360        2.3843706898       -2.5055595666
 H         -1.5932424083        2.9663641051       -0.7923990719
 H          0.4857392596        1.0036935148       -1.9851534680
 O          1.5841592378       -0.9157473272       -1.1346799570
