  62
        -98.93947606
 C          2.6102623551        1.2300007606        0.1164852126
 C          2.8134258848        0.2731042747       -0.9066793598
 C          4.1940889119       -0.2061372856       -1.0659297052
 C          5.1617926354        0.2934082100       -0.2755344506
 C          6.5972630833       -0.1442093982       -0.2960161128
 C          6.8428213232       -1.2862598795        0.6999545008
 C          5.8328618738       -2.4287303180        0.5905282254
 H          6.1218661737       -3.1893193399        1.3192095544
 H          4.8459121547       -2.0629718903        0.8836675941
 C          5.7418931855       -3.0645520660       -0.8037170257
 H          5.7279505798       -4.1507958749       -0.6922214376
 H          6.6286496453       -2.8099627271       -1.3853175875
 C          4.4897486699       -2.6825501811       -1.5955944384
 H          4.4177092766       -3.3490574542       -2.4592346641
 H          3.6012228723       -2.8482131405       -0.9805244869
 C          4.4473937104       -1.2429887055       -2.1236815900
 H          5.3673852071       -1.0232810247       -2.6690821414
 H          3.6072086484       -1.1701581382       -2.8204244995
 H          7.8509501958       -1.6730632302        0.5405773147
 H          6.7909097605       -0.8797110272        1.7127020569
 H          7.2205419775        0.7076671544       -0.0190163632
 H          6.8604573332       -0.4628292063       -1.3026402877
 O          4.9306219674        1.2315419675        0.6787114079
 C          3.6514253946        1.7105837349        0.9093742916
 O          3.5719009118        2.5475336289        1.8319518902
 O          1.8925409258       -0.1574844229       -1.6486300446
 C          1.2165720532        1.7716621749        0.3738337463
 C          0.2591469114        0.6412907905        0.6673331636
 C          0.6451916818       -0.3590571342        1.5555264343
 C         -0.2054890157       -1.4047418590        1.8574566069
 C         -1.4642185566       -1.4751270298        1.2868621747
 C         -1.8676008616       -0.4740047039        0.4151076557
 C         -1.0108884766        0.5797449211        0.1164696789
 H         -1.3397873178        1.3501710970       -0.5635842550
 N         -3.1417012543       -0.5384027113       -0.1750066243
 S         -4.4322788407       -1.0162717309        0.8042472788
 O         -4.3615481272       -0.3415470783        2.0810429893
 O         -4.4609594428       -2.4567022922        0.8551713858
 C         -5.8177297609       -0.4160401955       -0.1423456085
 C         -6.3800697460        0.8038111305        0.1830119833
 C         -7.4419092524        1.2751172722       -0.5728972290
 C         -7.9181570387        0.5244167633       -1.6372641666
 C         -7.3428395887       -0.6979385866       -1.9517769814
 C         -6.2817576757       -1.1759295185       -1.1994008782
 H         -5.8095131572       -2.1230831436       -1.4014952719
 H         -7.7175918620       -1.2791389278       -2.7788066560
 H         -8.7449318475        0.8932280933       -2.2235731312
 H         -7.8931243417        2.2234623944       -0.3291506501
 H         -5.9830931794        1.3490849630        1.0243258912
 H         -3.3639453080        0.2957954028       -0.7007715741
 H         -2.1383159755       -2.2857696166        1.5128282486
 H          0.1130880946       -2.1759291592        2.5434068981
 H          1.6282888769       -0.3077859304        2.0048996626
 H          1.2932830012        2.3934882773        1.2782929651
 C          0.7858122668        2.6485766661       -0.7843458003
 C         -0.1440156037        3.8022069232       -0.5596369422
 C          1.3036316192        4.0525254381       -0.8550134416
 H          1.5731460415        4.4553532488       -1.8197288802
 H          1.9435575519        4.3834084909       -0.0497958869
 H         -0.8674898849        4.0392715419       -1.3254130864
 H         -0.4919096063        3.9759677527        0.4475909766
 H          0.7071666608        2.0965553043       -1.7141060722
