  62
        -98.93549724
 C         -2.2342240636       -1.0033697064       -0.1088650908
 C         -3.0173105302       -0.5323923748        0.9753623094
 C         -3.9208046376        0.6006221060        0.7144900456
 C         -3.9562874221        1.1423078773       -0.5167900258
 C         -4.7377232216        2.3164371842       -1.0684374959
 C         -5.9289285200        2.8889419698       -0.3043190902
 C         -7.1337185240        1.9543185595       -0.2021926736
 H         -7.8799077317        2.4294883631        0.4382589299
 H         -7.5719204794        1.8421690313       -1.1971207310
 C         -6.8393925878        0.5548690006        0.3322265293
 H         -6.1755382696        0.0306930807       -0.3583853331
 H         -7.7818562500        0.0010587791        0.3548162645
 C         -6.2369863325        0.5033441498        1.7350465230
 H         -6.2331980967       -0.5427657490        2.0525821444
 H         -6.8702677690        1.0607028895        2.4278122440
 C         -4.7951679902        1.0274286341        1.8580584744
 H         -4.7740815472        2.1086213702        1.9733572191
 H         -4.3532446062        0.5934368055        2.7596360302
 H         -5.6190161243        3.2199836936        0.6825166485
 H         -6.2484480184        3.7804448178       -0.8509625365
 H         -4.0045528433        3.1173467342       -1.2168323359
 H         -5.0661652291        2.0116626517       -2.0672598711
 O         -3.1641333539        0.6752098494       -1.5241898892
 C         -2.2969683546       -0.3964850034       -1.3617411322
 O         -1.6663248817       -0.6819627629       -2.3976715462
 H          0.3008449128       -0.6328464234       -1.3045380922
 C          0.7718055836       -0.9501502715       -0.3854391384
 C          0.0680017844       -1.7663805479        0.4899884772
 C          0.6825851816       -2.1564614426        1.6738026450
 C          1.9711114058       -1.7441708116        1.9667246795
 C          2.6735879067       -0.9421065393        1.0852964829
 C          2.0650771759       -0.5392726291       -0.0965177295
 N          2.7718538829        0.2630592069       -1.0095262953
 S          3.5379576373        1.6377646041       -0.4265308427
 O          2.8644653781        2.1681866293        0.7370782810
 O          3.6496976088        2.5240692564       -1.5644376140
 C          5.1626621220        1.0572858101        0.0157286227
 C          5.8846592314        0.3604299788       -0.9335481606
 C          7.1547335707       -0.0896264959       -0.6104515402
 C          7.6800258312        0.1663474989        0.6475274425
 C          6.9439305802        0.8702594873        1.5881485033
 C          5.6719340632        1.3221627005        1.2718941446
 H          5.0599757810        1.8669891455        1.9730882478
 H          7.3536925627        1.0681139693        2.5655830338
 H          8.6687841448       -0.1854413479        0.8963286108
 H          7.7297030645       -0.6378846450       -1.3391958822
 H          5.4408045788        0.1844166525       -1.8991852270
 H          2.2446511196        0.4741841398       -1.8451291478
 H          3.6772472612       -0.6185227835        1.3076620058
 H          2.4352107466       -2.0521656731        2.8910825996
 H          0.1370309364       -2.7731150032        2.3729366726
 C         -1.3385272713       -2.1996239483        0.1652967114
 H         -1.7603425448       -2.6527634045        1.0762017310
 C         -1.4038239771       -3.2520143819       -0.9345739998
 C         -0.2556896532       -3.6027404004       -1.8284096776
 C         -0.6876940347       -4.5589061555       -0.7602401813
 H         -1.1914977696       -5.4692457794       -1.0473927587
 H         -0.0488862776       -4.6586415553        0.1043943470
 H          0.6778176985       -3.0794279278       -1.6960572487
 H         -0.4806298547       -3.8335812375       -2.8586192823
 H         -2.3891238480       -3.2957099865       -1.3883782849
 O         -2.9667557089       -1.0459939699        2.1249509408
