  62
        -98.93745225
 C         -2.1895976885       -0.8343844225       -0.1097583804
 C         -2.9374805532       -0.1683051749        0.8876471181
 C         -3.6984218104        1.0158044206        0.4549891393
 C         -3.6242702874        1.4133484445       -0.8270811879
 C         -4.2685415862        2.6126951165       -1.4768148996
 C         -5.7262491467        2.9221018609       -1.1100246163
 C         -6.5966655434        1.6916668166       -0.8161604934
 H         -7.5109706468        1.7541718591       -1.4090805789
 H         -6.0739313420        0.7825412989       -1.1181693520
 C         -6.9992604839        1.5830765615        0.6565002358
 H         -7.2859619467        2.5739636364        1.0154807473
 H         -7.8795384002        0.9404450497        0.7336147390
 C         -5.9342746600        1.0034883566        1.5866486900
 H         -6.3017954626        1.0862052447        2.6123983563
 H         -5.8015318589       -0.0619206955        1.3794580131
 C         -4.5507089469        1.6691585231        1.5048291296
 H         -4.6376653756        2.7411935648        1.3448562843
 H         -4.0395464681        1.4999246878        2.4568035254
 H         -6.1505850594        3.4763912488       -1.9488425821
 H         -5.7524050722        3.5889466123       -0.2492714530
 H         -3.6512519731        3.4892272681       -1.2586047559
 H         -4.1931328520        2.4265483041       -2.5507988972
 O         -2.8717024663        0.7523038921       -1.7519397698
 C         -2.1430909455       -0.3813725860       -1.4274216291
 O         -1.5102455333       -0.8756376046       -2.3783110324
 H          0.0304262359        0.1126620598        0.8496355034
 C          0.6528210073       -0.6334961425        0.3697460938
 C          0.0820722105       -1.8401740366       -0.0168190324
 C          0.8968298621       -2.7934536871       -0.6129845169
 C          2.2376562928       -2.5297526568       -0.8348139752
 C          2.7947079076       -1.3185599299       -0.4696371534
 C          1.9932058711       -0.3630869116        0.1419642269
 N          2.5439581068        0.8773568974        0.5067146171
 S          3.9778615254        0.8965898447        1.3788504546
 O          4.1189104018       -0.2887117082        2.1924413775
 O          3.9737760721        2.1614288796        2.0811657730
 C          5.2413681146        0.9330238338        0.1252571856
 C          5.1961774839        1.9446256572       -0.8139030219
 C          6.1754055480        1.9925044087       -1.7930948260
 C          7.1792071960        1.0355161209       -1.8145427677
 C          7.2127820435        0.0285547106       -0.8621580141
 C          6.2354573192       -0.0257299933        0.1195281778
 H          6.2177596223       -0.7931139650        0.8769452275
 H          7.9941530154       -0.7140519895       -0.8804443016
 H          7.9396845214        1.0752868943       -2.5783318729
 H          6.1520840260        2.7739682358       -2.5354964838
 H          4.4014845365        2.6700707262       -0.7606859008
 H          1.8742894830        1.5187226113        0.9058555092
 H          3.8359087167       -1.1070873132       -0.6496081698
 H          2.8569432665       -3.2778440869       -1.3055916107
 H          0.4816173201       -3.7426576126       -0.9089436247
 C         -1.3837493490       -2.0632106056        0.2666012485
 H         -1.5051753349       -2.1710180276        1.3555041444
 C         -1.9517751617       -3.2936968498       -0.4095442670
 C         -1.8416028578       -4.6374887356        0.2448767347
 C         -3.1676120455       -3.9431911213        0.1780487197
 H         -3.9217394028       -4.3289624785       -0.4914189827
 H         -3.5680063962       -3.5145443699        1.0854462117
 H         -1.6873656851       -5.5043619078       -0.3797619556
 H         -1.3449261970       -4.6884765821        1.2020939781
 H         -1.8854399138       -3.2404449816       -1.4904681833
 O         -2.9556709943       -0.5353054491        2.0944835240
