  62
        -98.94144434
 C         -2.4339349610       -1.0543345435       -0.5500735013
 C         -3.4759559812       -0.5560134151        0.2769016962
 C         -3.9891290498        0.7770630990       -0.0505302033
 C         -3.4764224985        1.4473032709       -1.0979002580
 C         -3.8988639202        2.8112776794       -1.5715348856
 C         -3.2283420025        3.9659633593       -0.8144598422
 C         -3.7302331262        4.1849100837        0.6134372212
 H         -3.3431318647        5.1507769030        0.9438654259
 H         -4.8185352766        4.2535737053        0.6087488922
 C         -3.2847645436        3.1089280486        1.6139866430
 H         -2.9236707315        3.5878618846        2.5271816638
 H         -2.4428657301        2.5485835318        1.1984239918
 C         -4.3838588192        2.1273337120        2.0219728823
 H         -5.1671710747        2.6608749162        2.5648669496
 H         -3.9467860570        1.3887379412        2.6989051093
 C         -5.0274155028        1.3747249026        0.8501057621
 H         -5.6260677189        0.5559185631        1.2564019659
 H         -5.6802466636        2.0415777096        0.2874867066
 H         -3.4110369771        4.8795572000       -1.3850138562
 H         -2.1490014035        3.7942069552       -0.7981859353
 H         -4.9825138856        2.9062338297       -1.4972943797
 H         -3.6135934961        2.8776197250       -2.6235993644
 O         -2.4946561443        0.9302620378       -1.8800980865
 C         -1.9286600302       -0.3089849760       -1.6153476399
 O         -1.0134517541       -0.6089858401       -2.4097023026
 O         -3.9599055343       -1.2044453745        1.2423985770
 C         -1.8710559415       -2.4185705452       -0.1823389807
 C         -0.6021575094       -2.2437463340        0.6180246382
 C         -0.5643121916       -2.5513290279        1.9729913419
 C          0.5859719826       -2.3387204165        2.7131762040
 C          1.7193832807       -1.8112080351        2.1204975493
 C          1.6869032271       -1.4921951319        0.7696066086
 C          0.5388995065       -1.7201644512        0.0263064216
 H          0.5168553925       -1.4512429744       -1.0197123188
 N          2.8342600437       -0.9304001644        0.1545145682
 S          3.1897897086        0.6510222045        0.6419711326
 O          3.3142997306        0.6720128391        2.0767888336
 O          2.2349836542        1.5797879424        0.0712269241
 C          4.7899227172        0.8715498520       -0.1094479943
 C          5.8965495312        0.3521718374        0.5342354947
 C          7.1405151904        0.4834008090       -0.0616065489
 C          7.2559558486        1.1257651014       -1.2855412277
 C          6.1358739466        1.6421819405       -1.9191252731
 C          4.8883649792        1.5133044313       -1.3285165632
 H          3.9915998785        1.9055167015       -1.7818070341
 H          6.2279177270        2.1429866190       -2.8695490517
 H          8.2249878778        1.2268475606       -1.7482347230
 H          8.0141279503        0.0846591910        0.4282852075
 H          5.7586585713       -0.1323223952        1.4864518796
 H          2.7144376161       -0.9062970841       -0.8515506985
 H          2.6124097930       -1.6180685704        2.6910894528
 H          0.5988502608       -2.5819935585        3.7648921113
 H         -1.4531815104       -2.9393760609        2.4492848689
 H         -2.6233135067       -2.8685945133        0.4793873529
 C         -1.6668945881       -3.3365850588       -1.3703213472
 C         -1.5653563758       -4.8128896790       -1.1349735926
 C         -2.7825983826       -4.2411218685       -1.7960588081
 H         -2.9292639102       -4.4144957170       -2.8515208576
 H         -3.7011125160       -4.2024335395       -1.2287910242
 H         -0.8735190756       -5.3828720905       -1.7356187156
 H         -1.6587324484       -5.1635191531       -0.1183539462
 H         -1.0539604799       -2.9063733229       -2.1512298317
