  62
        -98.94414141
 C          2.1994743621       -0.7793360903        0.0312652728
 C          2.9007950526       -0.0870106317       -0.9836387076
 C          3.6874211222        1.0734812935       -0.5451238254
 C          3.6670791591        1.4283442751        0.7530008048
 C          4.4617974105        2.5551423769        1.3455258734
 C          5.8292328209        2.0673263361        1.8444752044
 C          6.5955361497        1.2263552517        0.8234850927
 H          7.5556665532        0.9643372986        1.2730848459
 H          6.0550393923        0.2924385128        0.6531808999
 C          6.8353745654        1.9245329044       -0.5224469176
 H          7.8715900369        1.7577771966       -0.8239286590
 H          6.6998825667        3.0009719144       -0.4112794590
 C          5.9532584139        1.4187342050       -1.6654236247
 H          6.3496442386        1.8168710478       -2.6033497896
 H          6.0147874610        0.3289124730       -1.7211867382
 C          4.4730068703        1.8140920932       -1.5907049092
 H          4.3870856580        2.8932190418       -1.4466860460
 H          4.0117118219        1.5583184916       -2.5494236187
 H          5.6744813747        1.4610968160        2.7399119652
 H          6.4255553325        2.9382751865        2.1222916720
 H          4.5932148674        3.3340141201        0.5968214405
 H          3.9021847042        2.9642155836        2.1883611493
 O          2.9460478160        0.7645937610        1.6919488143
 C          2.2012605410       -0.3587739924        1.3616105273
 O          1.5972913942       -0.8748068543        2.3194830193
 H         -0.0602401662        0.1607192853       -0.8807774526
 C         -0.6633790038       -0.5896602937       -0.3831683223
 C         -0.0728721897       -1.7919279151       -0.0125289709
 C         -0.8628423160       -2.7510872495        0.6069528535
 C         -2.1990536062       -2.4978945096        0.8657578333
 C         -2.7761185837       -1.2923780348        0.5132655697
 C         -1.9996274465       -0.3307988011       -0.1207022038
 N         -2.5734589405        0.9027164433       -0.4756414122
 S         -4.0113948562        0.8930645795       -1.3429674709
 O         -4.1306697830       -0.2951770016       -2.1558079563
 O         -4.0364362648        2.1577099748       -2.0451858706
 C         -5.2702733217        0.9022920254       -0.0841867048
 C         -6.2304589156       -0.0902089416       -0.0616540912
 C         -7.2026461654       -0.0593272755        0.9261264528
 C         -7.1979051548        0.9585242549        1.8674893317
 C         -6.2285320546        1.9498555300        1.8287059687
 C         -5.2543159778        1.9251774780        0.8436401589
 H         -4.4857095203        2.6771182128        0.7768324749
 H         -6.2279096840        2.7397307284        2.5625041289
 H         -7.9540237957        0.9798286256        2.6363381734
 H         -7.9573329070       -0.8286237330        0.9578837530
 H         -6.1908981232       -0.8644235465       -0.8112456370
 H         -1.9176130639        1.5528051580       -0.8838395917
 H         -3.8140010015       -1.0898534490        0.7205108445
 H         -2.7989955079       -3.2503355225        1.3543048385
 H         -0.4319811135       -3.6966557029        0.8918370469
 C          1.3850693266       -2.0042465532       -0.3408085512
 H          1.4740898436       -2.0931035078       -1.4345387819
 C          1.9771497729       -3.2438568686        0.2968317786
 C          1.8443941144       -4.5776452974       -0.3735403005
 C          3.1718976395       -3.8836229277       -0.3424107636
 H          3.9486724024       -4.2791200622        0.2946876749
 H          3.5407969179       -3.4413090979       -1.2566069908
 H          1.3144079128       -4.6144757341       -1.3134005095
 H          1.7121265219       -5.4539325692        0.2429317987
 H          1.9487045859       -3.2070600291        1.3800373239
 O          2.8650473072       -0.4199822955       -2.2002968329
