  62
        -98.93660326
 C          1.8306958473        0.8542917217       -0.2397529067
 C          2.9228337830        0.9535803359        0.6599606681
 C          4.1410813257        0.1908777653        0.3348438758
 C          4.1508918245       -0.5745283276       -0.7707566763
 C          5.2594974853       -1.4397040180       -1.3140307828
 C          6.0144840815       -2.3073375155       -0.2951927449
 C          7.4483038396       -1.8386798059       -0.0418113419
 H          8.0344417924       -2.6870772100        0.3185015720
 H          7.8838158819       -1.5225519516       -0.9920275566
 C          7.5915006497       -0.7117365021        0.9796889681
 H          7.3925880369       -1.1035811455        1.9796039773
 H          8.6325464351       -0.3806081824        0.9620910623
 C          6.6875191927        0.5009814366        0.7486446481
 H          7.1451179102        1.3570596429        1.2490466231
 H          6.6367258612        0.7431853128       -0.3122500096
 C          5.2710400750        0.3314645942        1.3178584918
 H          5.2447605596       -0.5174152526        2.0075116077
 H          5.0080203355        1.2097802326        1.9155851054
 H          5.4585010230       -2.3489963454        0.6403330067
 H          6.0571052960       -3.3237980775       -0.6900351227
 H          4.7815448600       -2.0765073563       -2.0620229253
 H          5.9648515214       -0.8025247575       -1.8532353756
 O          3.0786382856       -0.6441533616       -1.6075700986
 C          1.9047065203        0.0523881442       -1.3772851148
 O          1.0372929789       -0.1423373450       -2.2538771724
 O          2.8845754146        1.6659612441        1.6989107802
 C          0.5884580938        1.6573359943        0.1082156445
 C         -0.4688042405        0.7915338319        0.7511061149
 C         -0.8964151753        1.0328361939        2.0512089507
 C         -1.8797708984        0.2475939346        2.6283569895
 C         -2.4567341229       -0.7913166947        1.9209969045
 C         -2.0330984917       -1.0414962469        0.6216902179
 C         -1.0535546672       -0.2486535375        0.0424669493
 H         -0.7256210865       -0.4522174976       -0.9660098073
 N         -2.6205569036       -2.0904096386       -0.1100491119
 S         -4.2946874771       -2.1132648586       -0.1603934964
 O         -4.8021264850       -2.7401557493        1.0350942813
 O         -4.6382382415       -2.7632152148       -1.4056237539
 C         -4.7713224379       -0.3938569143       -0.1883643690
 C         -5.5054234139        0.1361950173        0.8527175177
 C         -5.8182318286        1.4860662183        0.8326992498
 C         -5.3885041582        2.2788246143       -0.2198075706
 C         -4.6542122823        1.7301568065       -1.2601093105
 C         -4.3398385509        0.3814479030       -1.2465513607
 H         -3.7714389402       -0.0745503516       -2.0416755078
 H         -4.3212052080        2.3471971793       -2.0791735490
 H         -5.6260129842        3.3307850631       -0.2314479995
 H         -6.3902648989        1.9151332058        1.6394167561
 H         -5.8143057358       -0.5158040916        1.6533377517
 H         -2.2283038988       -2.1987579580       -1.0343261342
 H         -3.2212651623       -1.4165118317        2.3533259850
 H         -2.1998311395        0.4453992386        3.6397758160
 H         -0.4421194763        1.8343956930        2.6147890338
 H          0.9224336166        2.3865901070        0.8580525251
 C          0.0093110125        2.4132344435       -1.0726470637
 C         -0.8948016329        3.5794202106       -0.8138817280
 C          0.4836569214        3.8053520565       -1.3570159334
 H          0.5925580077        4.1110282071       -2.3868344525
 H          1.2309422358        4.2230682543       -0.6981587930
 H         -1.7368371016        3.7329115281       -1.4704597015
 H         -1.0844121881        3.8457298160        0.2145915120
 H         -0.2112203958        1.7808308389       -1.9224111828
