  62
        -98.94486318
 C          1.9285915411        0.2012430705        0.0297562608
 C          2.9559283711        1.0540143403        0.5005700312
 C          4.2584403309        0.4200440002        0.7416126815
 C          4.3936685309       -0.9025239898        0.5334948513
 C          5.6736236008       -1.6687313299        0.6983826516
 C          6.4637106712       -1.7231970598       -0.6166091682
 C          6.6284486414       -0.3631394897       -1.2948294880
 H          7.2262350217       -0.5193362796       -2.1954582578
 H          5.6481801616       -0.0054903796       -1.6182625682
 C          7.2943241713        0.7066967101       -0.4181390676
 H          7.8171911610        0.2317624400        0.4127826324
 H          8.0434477215        1.2312662301       -1.0149710174
 C          6.3357892012        1.7674638201        0.1261582922
 H          5.7417666415        2.1790456203       -0.6937011579
 H          6.9327821512        2.5844927600        0.5399421825
 C          5.3771602009        1.2981230100        1.2277830019
 H          4.8983551308        2.1856292600        1.6517220319
 H          5.9415333406        0.8011619499        2.0193875920
 H          5.9408663413       -2.3890388597       -1.3071667585
 H          7.4466430811       -2.1511572499       -0.4111645080
 H          6.2740265406       -1.1998521401        1.4755849818
 H          5.4269809406       -2.6862777199        1.0061944314
 O          3.3783280110       -1.6933988897        0.1016137509
 C          2.1237145711       -1.1653515195       -0.1699665293
 O          1.2925654611       -2.0018056394       -0.5705450197
 O          2.7885827811        2.2846914803        0.7148132513
 C          0.5581905612        0.7956875906       -0.2473665395
 C         -0.4650690690        0.1248346706        0.6341912301
 C         -0.2959219694        0.1984045503        2.0156673602
 C         -1.1787227897       -0.4300857697        2.8705932099
 C         -2.2569744996       -1.1376333096        2.3669365795
 C         -2.4381308892       -1.2143912593        0.9919756894
 C         -1.5485359590       -0.5785560993        0.1342705297
 H         -1.7040499587       -0.6733071191       -0.9266523603
 N         -3.5123466792       -1.9441123092        0.4583423890
 S         -4.4443830288       -1.3235203489       -0.7808044512
 O         -5.6165352288       -2.1702803489       -0.8086767616
 O         -3.6825081084       -1.2474217388       -2.0002950809
 C         -4.8927387488        0.3096045210       -0.2220328610
 C         -4.1311649186        1.3955697710       -0.6028040107
 C         -4.4566257587        2.6474571010       -0.1044247706
 C         -5.5297654389        2.7906992609        0.7612185791
 C         -6.2871106691        1.6896110309        1.1317577788
 C         -5.9646828090        0.4352802310        0.6404569887
 H         -6.5331909392       -0.4447656190        0.8941409784
 H         -7.1241916092        1.8051534009        1.8012681586
 H         -5.7783726889        3.7669632509        1.1464762192
 H         -3.8698100385        3.5048132010       -0.3933371303
 H         -3.3071820484        1.2464633710       -1.2805791205
 H         -4.0940784294       -2.3941772892        1.1497524988
 H         -2.9437368498       -1.6384514896        3.0323074392
 H         -1.0299016300       -0.3693807499        3.9380928999
 H          0.5499011805        0.7472661902        2.4068407705
 H          0.6351956312        1.8503583406        0.0553057907
 C          0.2368707016        0.7371514808       -1.7248309696
 C         -0.6969803381        1.7414736810       -2.3288243497
 C          0.7701457020        1.8073141109       -2.6277207593
 H          1.1118160722        1.5274096110       -3.6129911192
 H          1.3490854719        2.5976381008       -2.1723950190
 H         -1.3683736979        1.4155577312       -3.1097701399
 H         -1.1068597582        2.4955077709       -1.6736646097
 H          0.2188926117       -0.2749658791       -2.1140495697
