  62
        -98.94482835
 C         -2.0163737586       -0.9991862607        0.4416995240
 C         -2.1116201260       -0.2257928123       -0.7409678500
 C         -2.7747189182        1.0788938102       -0.5996360354
 C         -3.1655311428        1.4933019056        0.6187156279
 C         -3.8935217701        2.7755607691        0.8977442469
 C         -5.4147207474        2.5742913899        0.8439228886
 C         -5.8964337113        1.8363662300       -0.4052014830
 H         -5.5184769517        0.8117989142       -0.3809356458
 H         -6.9855188317        1.7793469917       -0.3486606847
 C         -5.4865609918        2.4958279583       -1.7293782989
 H         -5.1987833343        3.5328461916       -1.5531394347
 H         -6.3507467148        2.5075997881       -2.3967363447
 C         -4.3591939823        1.7775893482       -2.4733947641
 H         -4.6023576474        0.7165996926       -2.5701156861
 H         -4.2985899021        2.1935760117       -3.4824359732
 C         -2.9640113343        1.8960702222       -1.8463753277
 H         -2.2379525306        1.5097284847       -2.5677684675
 H         -2.7305326666        2.9459931961       -1.6572899287
 H         -5.8935769006        3.5535863050        0.8986347423
 H         -5.7179685681        1.9978359304        1.7209832803
 H         -3.6145590044        3.1189374490        1.8955836040
 H         -3.5879492800        3.5249618833        0.1700187771
 O         -2.9773346516        0.7588354575        1.7458490040
 C         -2.4043143756       -0.5000310098        1.6844646980
 O         -2.2886537497       -1.0659768541        2.7927738089
 H          0.3607789682       -1.0081638719        1.8498853297
 C          0.8442342999       -1.4297156138        0.9759559281
 C          0.0938669573       -2.2050448024        0.0990419665
 C          0.7219317529       -2.7345181605       -1.0193720574
 C          2.0631725076       -2.4810796036       -1.2541129944
 C          2.8021692300       -1.6995159859       -0.3846345031
 C          2.1824745218       -1.1698957838        0.7399278004
 N          2.9301511756       -0.3444134949        1.6193309871
 S          3.1220082034        1.2277358245        1.0347052395
 O          3.5057148072        2.0224329523        2.1817218033
 O          1.9457574908        1.6697215994        0.3168398271
 C          4.5027120797        1.0774390681       -0.0761510009
 C          4.2939495928        1.1418003305       -1.4396517296
 C          5.3795165039        0.9945353022       -2.2892689642
 C          6.6453228426        0.7858422258       -1.7627278478
 C          6.8377221480        0.7263659049       -0.3902261204
 C          5.7572203156        0.8726235847        0.4649021455
 H          5.8585694356        0.8388618910        1.5368210241
 H          7.8236496560        0.5651011766        0.0148411025
 H          7.4871374948        0.6695368216       -2.4269208084
 H          5.2314696518        1.0400025884       -3.3562192530
 H          3.2903340924        1.2991679474       -1.8018152453
 H          2.5057596336       -0.2825063292        2.5358000343
 H          3.8464126615       -1.5013857074       -0.5628362287
 H          2.5380322061       -2.8956407232       -2.1299893307
 H          0.1578209057       -3.3337548902       -1.7145537172
 C         -1.3728578626       -2.3768548338        0.4113245604
 H         -1.4547885553       -2.7698051669        1.4350696821
 C         -2.1031494437       -3.3082400616       -0.5308296095
 C         -1.9682859335       -4.7907427775       -0.3599969789
 C         -3.2565783359       -4.1100591542       -0.0104063099
 H         -4.1115025424       -4.2592572453       -0.6526146159
 H         -3.5107485106       -3.9976390995        1.0338290400
 H         -1.3469688300       -5.1448472713        0.4486182573
 H         -1.9406098856       -5.4114178238       -1.2424625797
 H         -2.1842543618       -2.9123063550       -1.5357068997
 O         -1.6763202299       -0.6034776234       -1.8591096158
