  62
        -98.93884219
 C          1.9939498305        1.3471414801        0.0232955596
 C          2.5927752751        0.7136476028        1.1357942831
 C          3.8230441784       -0.0528456635        0.8731756373
 C          4.2903343830       -0.1230992333       -0.3855948240
 C          5.4917108716       -0.8841523417       -0.8743618614
 C          5.0851162231       -2.2795218311       -1.3776610128
 C          5.0415593245       -3.3646557511       -0.3023826369
 H          4.6150067069       -4.2598592689       -0.7609384896
 H          6.0611965920       -3.6079041938        0.0036806387
 C          4.2267618846       -3.0158257594        0.9460000863
 H          3.2949800505       -2.5289774918        0.6513152300
 H          3.9586629675       -3.9504883145        1.4427893341
 C          4.9924737246       -2.1271724655        1.9378700539
 H          6.0450287185       -2.1060446258        1.6563520617
 H          4.9475495647       -2.5751350027        2.9327783052
 C          4.4658421790       -0.6907103239        2.0747404128
 H          3.6941008299       -0.6592242513        2.8504387120
 H          5.2799066440       -0.0443551969        2.4193592507
 H          4.1044191353       -2.1917778559       -1.8528292853
 H          5.7926123025       -2.5948451917       -2.1471827116
 H          5.8974213164       -0.3170124691       -1.7146824268
 H          6.2486373321       -0.9506992423       -0.0985410119
 O          3.6650929723        0.4775677662       -1.4348546901
 C          2.5055480565        1.2160992055       -1.2677517202
 O          2.0434426920        1.6925710504       -2.3205554747
 H         -0.0883741878       -0.3320394655        0.5569321661
 C         -0.6976572343        0.1743079590       -0.1815326888
 C         -0.4208537952        1.5024697698       -0.4864004537
 C         -1.2187935277        2.1472659442       -1.4209821636
 C         -2.2433486903        1.4653130280       -2.0562662257
 C         -2.5022522344        0.1391665656       -1.7659928141
 C         -1.7238181503       -0.5092149982       -0.8141141346
 N         -1.9952588045       -1.8494581418       -0.4922423993
 S         -3.5949848132       -2.2961183074       -0.2858159073
 O         -3.5608116416       -3.4106888494        0.6351100881
 O         -4.1939656039       -2.5620685845       -1.5700957722
 C         -4.3861231074       -0.8839461589        0.4658519927
 C         -3.8946770526       -0.4262553047        1.6724773438
 C         -4.4763478674        0.6887555644        2.2532624901
 C         -5.5348415468        1.3236579074        1.6213604205
 C         -6.0211673840        0.8478787906        0.4138519229
 C         -5.4414571845       -0.2656014396       -0.1729895683
 H         -5.7848143580       -0.6662789569       -1.1128319676
 H         -6.8455091516        1.3421709523       -0.0742309591
 H         -5.9823986269        2.1940097249        2.0745592867
 H         -4.0987918927        1.0594108999        3.1927957817
 H         -3.0725867083       -0.9429715059        2.1417851431
 H         -1.4091640956       -2.2251355784        0.2382246773
 H         -3.2844026667       -0.4083746262       -2.2663040188
 H         -2.8470516393        1.9742464147       -2.7918464003
 H         -1.0315607193        3.1797393973       -1.6639527540
 C          0.7292566148        2.1610110443        0.2350411027
 H          0.5273794862        2.1054912185        1.3148184116
 C          0.9476752963        3.6091975641       -0.1450807600
 C          0.1050283371        4.6811481892        0.4768582150
 C          1.5454305810        4.5407793218        0.8649179462
 H          2.2487460705        5.2861257952        0.5250182845
 H          1.7780358961        4.1354783224        1.8389711911
 H         -0.1812249005        5.5280944689       -0.1278954781
 H         -0.6439527707        4.3750855699        1.1911573586
 H          1.2545689673        3.7299504180       -1.1775124521
 O          2.1136784563        0.7765299241        2.3016119968
