  62
        -98.94358474
 C          2.0046646579        1.3547478617       -0.1403811420
 C          1.8983457966        0.0335130756       -0.6377413368
 C          3.1647931661       -0.7011707379       -0.7714070673
 C          4.3183449378       -0.0968468437       -0.4331483816
 C          5.6679670413       -0.7526093942       -0.4576452794
 C          5.9924708253       -1.4030327051        0.8947287328
 C          4.8715715725       -2.2869691310        1.4423502158
 H          5.2247832609       -2.7128636676        2.3841100299
 H          4.0064451044       -1.6626722452        1.6779771727
 C          4.4365648019       -3.4189143785        0.5010550237
 H          5.2080858802       -3.5925875104       -0.2500439869
 H          4.3372522815       -4.3383027751        1.0820420375
 C          3.0948108935       -3.1845161746       -0.1953372436
 H          2.3372748743       -2.9207703966        0.5474224332
 H          2.7843365812       -4.1247582447       -0.6588748009
 C          3.0930975084       -2.1099061010       -1.2896063292
 H          3.9020677520       -2.3035464847       -1.9967362797
 H          2.1426060180       -2.1840627574       -1.8255503161
 H          6.9029360879       -1.9947821875        0.7837325702
 H          6.1890983466       -0.6111961339        1.6214477147
 H          5.6892453340       -1.5013942414       -1.2470328997
 H          6.4181576139        0.0102661345       -0.6725490207
 O          4.3808199222        1.1799905471        0.0248921443
 C          3.2292930902        1.9329831140        0.1908818883
 O          3.4235555120        3.0827622386        0.6360514858
 H         -1.9865914041        2.0037149796       -0.1546553562
 C         -1.5926746293        1.4960970553        0.7124104432
 C         -0.2269739781        1.4961970491        0.9542625145
 C          0.2426191034        0.8419087779        2.0899022632
 C         -0.6245788956        0.1855305850        2.9422416537
 C         -1.9857212492        0.1783359700        2.6913541692
 C         -2.4676618626        0.8403847811        1.5712636022
 N         -3.8572248551        0.8429324661        1.3228497900
 S         -4.5798176751       -0.6127128966        0.9139482332
 O         -5.9909909975       -0.3273830662        0.7888621419
 O         -4.2098802788       -1.6071001929        1.8873656953
 C         -3.9094026961       -1.0188971090       -0.6884341666
 C         -2.5806369226       -1.3820694743       -0.7807670381
 C         -2.0359756002       -1.6169249363       -2.0331368515
 C         -2.8281157549       -1.4958177037       -3.1644024119
 C         -4.1643126264       -1.1398355011       -3.0545746631
 C         -4.7102357035       -0.8882490332       -1.8064397091
 H         -5.7400938224       -0.5980858810       -1.6737792966
 H         -4.7774782581       -1.0493089863       -3.9369790979
 H         -2.3990147933       -1.6780726297       -4.1373645641
 H         -0.9885325915       -1.8608260593       -2.1056466518
 H         -1.9794270686       -1.4688697003        0.1096756711
 H         -4.1420380593        1.5471426722        0.6556993051
 H         -2.6746487102       -0.3433897705        3.3349148786
 H         -0.2389393900       -0.3234775937        3.8130608395
 H          1.3052544313        0.8478141068        2.2932420529
 C          0.7533414908        2.1932501931        0.0418200038
 H          1.0777362674        3.1209553335        0.5363209509
 C          0.1677645583        2.5413575195       -1.3123195612
 C         -0.5461508287        3.8422764135       -1.5221265063
 C          0.8124557156        3.6281416697       -2.1169937555
 H          0.8958270654        3.5000862636       -3.1856856355
 H          1.6542917023        4.1390099464       -1.6720829904
 H         -0.6276778460        4.5122439576       -0.6792891415
 H         -1.3958283290        3.8640302357       -2.1883141107
 H         -0.1888928494        1.6676184188       -1.8461879432
 O          0.8073555646       -0.5060096380       -0.9513469292
