  62
        -98.94637794
 C          1.6698236244        1.3783390103       -0.0610570921
 C          2.6970187889        0.8215854082        0.7352726484
 C          3.2764856927       -0.4337752281        0.2428750398
 C          2.8206663237       -0.9757269629       -0.9015476488
 C          3.3176933035       -2.2473352139       -1.5358969127
 C          2.6890164837       -3.5260596817       -0.9642299739
 C          3.1530485543       -3.9102026702        0.4410212773
 H          2.8030384606       -4.9273657402        0.6283405241
 H          4.2427598952       -3.9305170744        0.4723678807
 C          2.6213840167       -2.9933600257        1.5517515478
 H          1.7783907791       -2.4111688545        1.1705010166
 H          2.2422802368       -3.6003770672        2.3773879456
 C          3.6624134900       -2.0349763279        2.1304784758
 H          3.1746323364       -1.4094244693        2.8828950874
 H          4.4487632049       -2.6061377292        2.6288164221
 C          4.3105902687       -1.1098831470        1.0918717988
 H          5.0073939173       -1.6719105358        0.4705346576
 H          4.8642399016       -0.3327404006        1.6245876884
 H          1.6021399055       -3.4171976260       -0.9633944050
 H          2.9410117996       -4.3445291146       -1.6424491979
 H          3.0662382061       -2.1839947441       -2.5967247186
 H          4.4024946311       -2.3035172059       -1.4410666623
 O          1.8409607817       -0.3997471309       -1.6469248812
 C          1.2265028934        0.7770616513       -1.2404585672
 O          0.3260907260        1.1762937662       -1.9985963081
 O          3.1029659181        1.3412805922        1.8104608603
 C          0.9698176208        2.6406392612        0.4082371974
 C         -0.5045248170        2.3620787780        0.5708630996
 C         -1.5036809249        3.2036610956        0.1014218537
 C         -2.8375298367        2.8617399421        0.2500419145
 C         -3.2044466965        1.6792195212        0.8649227249
 C         -2.2121257505        0.8351629112        1.3469575028
 C         -0.8795509220        1.1848635876        1.2074510849
 H         -0.1106932857        0.5208427143        1.5843874134
 N         -2.5704562289       -0.3868311166        1.9548813292
 S         -3.4680845511       -1.4367030329        1.0020985418
 O         -4.8346771700       -0.9803536751        0.9659680583
 O         -3.2514047841       -2.7471892391        1.5735243158
 C         -2.7469635689       -1.3339894482       -0.6243189236
 C         -3.3358722546       -0.5333969041       -1.5811160677
 C         -2.7319157380       -0.4199479243       -2.8224282935
 C         -1.5587229353       -1.1076022436       -3.0853147149
 C         -0.9837831131       -1.9140631163       -2.1162621339
 C         -1.5753023656       -2.0222415402       -0.8691658440
 H         -1.1559162668       -2.6382457570       -0.0880060125
 H         -0.0670820057       -2.4409306812       -2.3286837752
 H         -1.0820824070       -1.0101243761       -4.0474664989
 H         -3.1722201800        0.2107471002       -3.5775942611
 H         -4.2524628106       -0.0208025441       -1.3397528896
 H         -1.7789068444       -0.8798082732        2.3436389161
 H         -4.2370143011        1.3888690412        0.9731467160
 H         -3.6025574211        3.5237091225       -0.1259816989
 H         -1.2390251457        4.1240654549       -0.3922451666
 H          1.3930573530        2.8624579145        1.3994788675
 C          1.2699606891        3.7991081559       -0.5188861731
 C          1.2747720669        5.2036369043        0.0044699439
 C          2.5653032609        4.5351544594       -0.3597574786
 H          3.0856224364        4.8623571197       -1.2473557529
 H          3.2214485215        4.2167763952        0.4372805411
 H          0.9110703729        5.9940666765       -0.6345845291
 H          1.0577960052        5.3482745267        1.0520640966
 H          0.9118323996        3.6270896394       -1.5275537102
