  62
        -98.94947710
 C         -1.1038640299       -1.7144965369        0.1225272376
 C         -1.7166153671       -0.9141690558        1.1154051185
 C         -2.8435815504       -0.0874641273        0.6699765556
 C         -3.2186051671       -0.1133815889       -0.6218921129
 C         -4.3455256424        0.6752861313       -1.2316412694
 C         -3.9661410123        2.1181757124       -1.5931506193
 C         -3.8426618593        3.0761136996       -0.4073886131
 H         -4.7318438503        2.9966447532        0.2196602566
 H         -3.8197413779        4.0881165997       -0.8167262503
 C         -2.5841351467        2.8662890287        0.4458734656
 H         -2.1295978028        3.8360955811        0.6650770505
 H         -1.8466468001        2.3029652072       -0.1321309182
 C         -2.8335244352        2.1720542491        1.7851188371
 H         -3.4541959428        2.8137619999        2.4150898024
 H         -1.8717534675        2.0410141215        2.2868819898
 C         -3.5105692523        0.7996930311        1.6786434922
 H         -4.5649604307        0.9219993883        1.4309819507
 H         -3.4344931617        0.3065747404        2.6512890837
 H         -4.7393735505        2.5007378899       -2.2638958815
 H         -3.0220053500        2.1053052387       -2.1442652004
 H         -5.2017350270        0.6804268835       -0.5558736899
 H         -4.6284763377        0.1531616600       -2.1483034446
 O         -2.6103039642       -0.9025383990       -1.5463039024
 C         -1.5328743705       -1.7085568299       -1.2055026719
 O         -1.0628743569       -2.3641969251       -2.1551404253
 O         -1.3399309030       -0.8917395078        2.3187741194
 C          0.0916131901       -2.5633034351        0.5038898142
 C          1.3421142161       -2.1413833549       -0.2328250908
 C          2.4313871804       -2.9927107604       -0.3880733189
 C          3.5735474081       -2.5575303977       -1.0366920399
 C          3.6661186515       -1.2684867565       -1.5313168614
 C          2.5832116191       -0.4100958151       -1.3823747043
 C          1.4406755100       -0.8534256217       -0.7354209352
 H          0.5983289969       -0.1863208758       -0.6594455581
 N          2.6179006477        0.8981952556       -1.8808765949
 S          1.7273481271        2.1216980990       -1.1783544931
 O          0.3203689246        1.9439067258       -1.4367590484
 O          2.3188460443        3.3310754379       -1.7101783809
 C          2.0790941155        2.0026357933        0.5657326764
 C          1.1263573220        1.5315857359        1.4440253493
 C          1.4534139205        1.3925419856        2.7833762886
 C          2.7229275906        1.7335062494        3.2218962801
 C          3.6676638258        2.2201427488        2.3301066873
 C          3.3475317759        2.3513157477        0.9891188356
 H          4.0515934899        2.7324638411        0.2674799807
 H          4.6521172556        2.4914903099        2.6757184219
 H          2.9748793698        1.6211925213        4.2645866382
 H          0.7114704333        1.0021381344        3.4625006400
 H          0.1447202809        1.2726233334        1.0807630769
 H          3.5104782263        1.2138778263       -2.2279880903
 H          4.5575554082       -0.9328629084       -2.0381435727
 H          4.4082695629       -3.2313366364       -1.1559911159
 H          2.3802139542       -3.9995153077       -0.0064428447
 H          0.2546116375       -2.3700759497        1.5760003850
 C         -0.2162823329       -4.0375778505        0.3209899071
 C          0.3019308105       -5.0544511910        1.2926505724
 C         -1.1543083246       -4.7031901435        1.2820191814
 H         -1.8613466833       -5.4231706411        0.8982369678
 H         -1.5415930278       -4.1002489534        2.0905357620
 H          0.5959918731       -6.0225819444        0.9159492507
 H          0.8965082322       -4.7008375188        2.1215548031
 H         -0.2908787194       -4.3172805303       -0.7238553703
