  62
        -98.93869157
 C         -2.4312240511       -1.0063021975        0.1744357888
 C         -2.0988362799       -0.0481594280       -0.8122638713
 C         -2.6688059990        1.2974773425       -0.6262257518
 C         -3.4366124992        1.5493379033        0.4475811978
 C         -4.1250173283        2.8388836739        0.8178640472
 C         -3.3119506473        4.1347344933        0.6752857273
 C         -1.7988424075        3.9852683321        0.8942839779
 H         -1.4691999371        4.7391438020        1.6119842978
 H         -1.5767018684        3.0077611421        1.3264714482
 C         -0.9879261868        4.1744903612       -0.3904346818
 H          0.0407259733        4.4253881505       -0.1192214615
 H         -1.3980466159        5.0271260114       -0.9360164322
 C         -0.9329695374        2.9632245109       -1.3218105915
 H         -0.3004320482        2.1841855205       -0.8874489311
 H         -0.4607916268        3.2772518404       -2.2553940014
 C         -2.2880309778        2.3207600419       -1.6567161919
 H         -3.0633696371        3.0725700925       -1.7824724624
 H         -2.1732690278        1.7741759116       -2.5965028317
 H         -3.7155242670        4.8423391137        1.4013900169
 H         -3.4844808065        4.5650925632       -0.3102148429
 H         -4.4300935588        2.7096675144        1.8590464972
 H         -5.0388159180        2.9221845345        0.2228195069
 O         -3.7191453703        0.5972386437        1.3822418279
 C         -3.2286650112       -0.6936063767        1.2727976884
 O         -3.5593578922       -1.4518865562        2.2080554985
 O         -1.3660836297       -0.3000441088       -1.8025018009
 C         -1.8964844521       -2.4213164380        0.0604737193
 C         -0.3871183121       -2.4163099392        0.0046934899
 C          0.3430769176       -3.2220531999       -0.8594819496
 C          1.7268591176       -3.1938496110       -0.8423526391
 C          2.4119229079       -2.3689932013        0.0303679810
 C          1.6921978782       -1.5539609306        0.8951851505
 C          0.3051429382       -1.5872092295        0.8783254600
 H         -0.2539579816       -0.9572306689        1.5598956096
 N          2.3608782585       -0.7208095509        1.8029643906
 S          3.8190060192        0.0016440179        1.4359423610
 O          4.8611783885       -0.9946969229        1.4263799516
 O          3.9560713497        1.0559780680        2.4153416208
 C          3.6441103104        0.7071538376       -0.1918526992
 C          2.8338004113        1.8159216882       -0.3351895698
 C          2.6899446423        2.3836119081       -1.5902474900
 C          3.3455849623        1.8280212673       -2.6781646996
 C          4.1559003013        0.7152066567       -2.5183351090
 C          4.3118685604        0.1495391469       -1.2630199188
 H          4.9471242597       -0.7044409436       -1.0943776484
 H          4.6682497613        0.2881891861       -3.3653110287
 H          3.2261928730        2.2695078172       -3.6548832398
 H          2.0665954930        3.2540334285       -1.7159670804
 H          2.3447201613        2.2258424488        0.5344454799
 H          1.7599473988       -0.1066146403        2.3301034802
 H          3.4882842779       -2.3582838722        0.0692880014
 H          2.2816509374       -3.8273555316       -1.5173908487
 H         -0.1709436726       -3.8736822797       -1.5464376296
 H         -2.1976091329       -2.9361084075        0.9853010993
 C         -2.5411879522       -3.1233745578       -1.1173882307
 C         -2.7782808434       -4.6023707376       -1.0816975205
 C         -3.9333077027       -3.6551789266       -0.9634481612
 H         -4.6162834623       -3.5642205563       -1.7946941814
 H         -4.4041459430       -3.5365828761        0.0020449986
 H         -2.6718435434       -5.1649286279       -1.9970064403
 H         -2.4714427241       -5.1377976576       -0.1958310002
 H         -2.2823288015       -2.6663083582       -2.0654592708
