  62
        -98.94402355
 C         -1.7066714642       -1.3656526052       -0.2802426036
 C         -2.7910734709       -0.6999728830        0.3330762912
 C         -3.1879838215        0.5873058402       -0.2585588090
 C         -2.5270601523        1.0516428052       -1.3330570433
 C         -2.7866186690        2.3101839462       -2.1230833722
 C         -3.0739632815        3.5957480600       -1.3367854017
 C         -2.3381293186        3.7172417424        0.0058241575
 H         -1.5517796764        2.9625711481        0.0831837382
 H         -1.8478474485        4.6920629380        0.0547266158
 C         -3.2762775506        3.6073179735        1.2104038525
 H         -2.7803141944        4.0497465541        2.0779737216
 H         -4.1762658169        4.1940499577        1.0106070809
 C         -3.6810791402        2.1865578409        1.5991552913
 H         -4.4128473505        2.2530053028        2.4084457429
 H         -2.8097286259        1.6570731739        1.9960463858
 C         -4.2723548050        1.3320581036        0.4652430073
 H         -4.9142584056        0.5703903391        0.9165961070
 H         -4.8716121432        1.9357854978       -0.2119736403
 H         -4.1456100087        3.6853254871       -1.1619229349
 H         -2.7898959297        4.4289488670       -1.9821140840
 H         -3.6178622913        2.1170523970       -2.8081838318
 H         -1.8900023375        2.4500387227       -2.7316697244
 O         -1.5003542697        0.3654179498       -1.9066694450
 C         -1.0336160088       -0.8206387213       -1.3711958481
 O         -0.0379618894       -1.2929888103       -1.9555308663
 O         -3.4028066470       -1.1620275936        1.3355655894
 C         -1.1735928427       -2.6466866151        0.3349081792
 C          0.2625498894       -2.4380685948        0.7507748355
 C          1.2611314675       -3.3885272005        0.5790761652
 C          2.5667604691       -3.1098623446        0.9471518777
 C          2.9100367499       -1.8740481787        1.4646815090
 C          1.9153199419       -0.9214633699        1.6502805688
 C          0.6033396858       -1.2215539725        1.3281003815
 H         -0.1557922544       -0.4693997955        1.4857668095
 N          2.2009970740        0.3747501395        2.1328424101
 S          1.9602763943        1.6205356824        1.0309405520
 O          2.3796097193        2.8213685677        1.7220411142
 O          0.6038265520        1.6010934697        0.5514511624
 C          3.1211686312        1.2549743629       -0.2733946568
 C          4.3658749743        1.8545825700       -0.2268473691
 C          5.3122585514        1.5152816232       -1.1793592831
 C          5.0032433151        0.5756268261       -2.1518160590
 C          3.7515708488       -0.0188262718       -2.1819964430
 C          2.7962910008        0.3188219913       -1.2343914694
 H          1.8148148159       -0.1303467438       -1.2473204360
 H          3.5019430895       -0.7497083960       -2.9344105754
 H          5.7404471803        0.3052594476       -2.8913198794
 H          6.2851199199        1.9794394778       -1.1586553721
 H          4.5581496918        2.5806440124        0.5467247935
 H          3.1282144697        0.4648872823        2.5269170646
 H          3.9338459153       -1.6446831971        1.7194315861
 H          3.3315813916       -3.8581843478        0.8065941904
 H          1.0183524266       -4.3461112628        0.1480319129
 H         -1.7786641288       -2.8140719993        1.2388802065
 C         -1.3626960677       -3.8182711389       -0.6057415932
 C         -1.5800320021       -5.1989150793       -0.0639922914
 C         -2.7146419924       -4.4571271090       -0.7020478475
 H         -3.0651426262       -4.7787775685       -1.6711642907
 H         -3.4934692161       -4.0630253608       -0.0655067793
 H         -1.1536679924       -6.0351788300       -0.5972540599
 H         -1.5954210199       -5.3188961182        1.0087363140
 H         -0.7943020501       -3.7086942936       -1.5225300723
