  62
        -98.94056389
 C         -2.3708058456       -0.7562916752       -0.1095503669
 C         -3.5464895727       -1.0568752612        0.6189895577
 C         -4.8016171262       -0.5730055057        0.0340953497
 C         -4.7793723485        0.0907713294       -1.1362783911
 C         -5.9779429128        0.6264074360       -1.8717991821
 C         -6.4459072115        2.0039467684       -1.3824987317
 C         -7.1395406237        2.0092380987       -0.0196664528
 H         -7.6042800137        2.9899861262        0.0993485052
 H         -7.9389168311        1.2676870439       -0.0172907839
 C         -6.2010422735        1.7608813507        1.1694461027
 H         -6.4125907582        2.4860912518        1.9584862562
 H         -5.1666728299        1.9215687984        0.8564199713
 C         -6.3194870021        0.3689053965        1.7903179598
 H         -5.5871891475        0.2899408902        2.5979598428
 H         -7.3138574626        0.2445179891        2.2246740982
 C         -6.0675000324       -0.7835092558        0.8090456845
 H         -5.9549088505       -1.7057012739        1.3843201504
 H         -6.9145233320       -0.8940025574        0.1325057061
 H         -5.5846266857        2.6754491801       -1.3560856759
 H         -7.1473404151        2.3918964841       -2.1246763277
 H         -6.8004188542       -0.0857385613       -1.8000275082
 H         -5.6841052374        0.7148335263       -2.9198588692
 O         -3.6284052831        0.3425520133       -1.8157019705
 C         -2.3968564409       -0.0533840446       -1.3138325270
 O         -1.4260479226        0.2705624478       -2.0241079900
 O         -3.5457448309       -1.6955675509        1.7056888707
 C         -1.0318712685       -1.2116242460        0.4389823506
 C         -0.1181896639       -0.0307433300        0.6556046500
 C         -0.6004907678        1.0766367959        1.3499517703
 C          0.2064915787        2.1730708789        1.5807230978
 C          1.5188191134        2.1834900384        1.1410151248
 C          2.0112374969        1.0835696544        0.4500681279
 C          1.1933533909       -0.0127738688        0.2103473079
 H          1.6034849269       -0.8498200349       -0.3289672027
 N          3.3318843695        1.0695503702       -0.0264583465
 S          4.1701469995       -0.3957297291       -0.0344705169
 O          3.8427192967       -1.1207785033       -1.2360891311
 O          3.9573807180       -1.0947343665        1.2128210273
 C          5.8496090781        0.1976871468       -0.1303655085
 C          6.3526305246        0.5705619903       -1.3626753403
 C          7.6469554560        1.0600104180       -1.4372696161
 C          8.4123801284        1.1683662823       -0.2855237419
 C          7.8947638367        0.7884438598        0.9436235949
 C          6.6004554209        0.2992946668        1.0256161435
 H          6.1591348896       -0.0162846501        1.9573062001
 H          8.4934148952        0.8707044620        1.8364489094
 H          9.4198019533        1.5485933014       -0.3470645040
 H          8.0538426637        1.3536213679       -2.3914543840
 H          5.7238181315        0.4600288801       -2.2308672073
 H          3.8945739313        1.8210640584        0.3482661049
 H          2.1519228808        3.0382295966        1.3248090785
 H         -0.1850905244        3.0249425579        2.1163981991
 H         -1.6224964637        1.0641386239        1.7045914763
 H         -1.2529996500       -1.6535713028        1.4228930177
 C         -0.4333366568       -2.2831735615       -0.4473064104
 C          0.5159428594       -3.2918003463        0.1248569004
 C         -0.8682192878       -3.7060573368       -0.2724176720
 H         -0.9914062991       -4.3194426691       -1.1522666218
 H         -1.5842499466       -3.9123885549        0.5096741830
 H          1.3504369949       -3.6131011340       -0.4810418133
 H          0.7472066080       -3.2192252820        1.1772142054
 H         -0.2546941824       -1.9346432954       -1.4592051558
