  62
        -98.94368461
 C         -1.7171514390       -0.4925591979       -0.3126335949
 C         -2.9409565220       -0.9886057067       -0.8209391246
 C         -4.1344555167       -0.7025438187       -0.0138974204
 C         -3.9992556373       -0.0278679893        1.1426941375
 C         -5.1354600175        0.3752216747        2.0365826601
 C         -5.6619408376        1.7701262615        1.6708905735
 C         -5.9414283071        1.9532498012        0.1791726783
 H         -6.3366263714        2.9623405805        0.0437174288
 H         -4.9982431223        1.9010082682       -0.3693540390
 C         -6.9267978898        0.9351870336       -0.4115883618
 H         -7.4947407126        0.4607333936        0.3895090654
 H         -7.6411731731        1.4656313214       -1.0447627563
 C         -6.2784831514       -0.1443545273       -1.2803088395
 H         -7.0721457900       -0.6712729055       -1.8168315250
 H         -5.6344135521        0.3249814656       -2.0282392365
 C         -5.4555785909       -1.1993810951       -0.5301928865
 H         -5.2186384497       -1.9998141751       -1.2374227023
 H         -6.0521794119       -1.6235244708        0.2800919260
 H         -6.5753696420        1.9541318543        2.2394071931
 H         -4.9180998569        2.5107692391        1.9731280944
 H         -4.7735468409        0.3915250939        3.0659541223
 H         -5.9343776917       -0.3591411834        1.9544328619
 O         -2.8031120258        0.4096822148        1.6113142528
 C         -1.6326035821        0.1972668151        0.8970098825
 O         -0.6107790702        0.6601849358        1.4359872838
 O         -3.0298990578       -1.6436002458       -1.8948281707
 C         -0.4412946572       -0.7380944618       -1.0980075950
 C          0.5299305449       -1.5295355205       -0.2583685106
 C          0.1004185315       -2.7239222684        0.3159668611
 C          0.9484533362       -3.4692664145        1.1105703549
 C          2.2438832490       -3.0427239902        1.3473553690
 C          2.6848299610       -1.8559431448        0.7752230138
 C          1.8301542582       -1.1118590668       -0.0279649520
 H          2.1913863857       -0.1997972892       -0.4699549209
 N          3.9757545044       -1.3817888286        1.0313164135
 S          4.8097356185       -0.4311059008       -0.0532360850
 O          4.6280980756       -0.8821288822       -1.4135011004
 O          6.1717951510       -0.4453129938        0.4368724319
 C          4.1317719502        1.2025196885        0.1481041785
 C          3.8293950414        1.6537271311        1.4169613133
 C          3.3157272300        2.9317189679        1.5666593682
 C          3.1184429354        3.7337221121        0.4531835127
 C          3.4349714244        3.2689629593       -0.8138912422
 C          3.9487851199        1.9917138665       -0.9700768246
 H          4.2008159943        1.5845319694       -1.9367311812
 H          3.2800091822        3.8947432457       -1.6785684991
 H          2.7126536147        4.7259404340        0.5733775937
 H          3.0635756657        3.2952663600        2.5497891566
 H          3.9860256690        1.0030771116        2.2609972798
 H          4.5745292554       -1.9925787657        1.5654754578
 H          2.9055769784       -3.6204065699        1.9745669199
 H          0.6007233051       -4.3919028473        1.5506981576
 H         -0.9127384291       -3.0558419291        0.1335741726
 H         -0.7394701226       -1.3610963108       -1.9544757645
 C          0.1198126764        0.5686027327       -1.6174926899
 C          0.9694887242        0.5853515152       -2.8515139890
 C         -0.4240876783        1.1341804848       -2.8939006260
 H         -0.5556514589        2.2029781595       -2.9696084226
 H         -1.1849597295        0.5628913588       -3.4055964198
 H          1.7957054442        1.2780093305       -2.8975723363
 H          1.1634234261       -0.3586213684       -3.3382134262
 H          0.3582101702        1.2669076842       -0.8225314674
