  62
        -98.94595617
 C          1.2054647492        0.9384895242       -0.4995085620
 C          2.3221126888        1.2284760140        0.3266611502
 C          3.1068022354        0.0823198452        0.7997585019
 C          2.7111979241       -1.1606152048        0.4713370774
 C          3.4335490839       -2.4201211858        0.8520198337
 C          4.4539893116       -2.8244125282       -0.2213352822
 C          5.3702968044       -1.6828009995       -0.6616833804
 H          6.0665883906       -2.0901075049       -1.3978254403
 H          4.7723987295       -0.9225943187       -1.1692910356
 C          6.1592703744       -1.0261937504        0.4796325150
 H          6.1702692462       -1.6842499722        1.3492685248
 H          7.1949271775       -0.8945905092        0.1593315774
 C          5.6435336151        0.3527295514        0.8956768290
 H          6.3920324384        0.8138609009        1.5455520107
 H          5.5415037373        0.9876960786        0.0121099261
 C          4.3101103064        0.3667556946        1.6542328561
 H          4.1628313309        1.3756646253        2.0509964334
 H          4.3569476969       -0.3276192773        2.4961073448
 H          5.0558161691       -3.6477026833        0.1678974740
 H          3.9100832571       -3.1844678201       -1.0974948711
 H          2.6968370771       -3.2177311953        0.9636871263
 H          3.9338320121       -2.2691206487        1.8068533057
 O          1.6229390051       -1.4061360046       -0.2967612029
 C          0.8427974647       -0.3745420313       -0.8030825540
 O         -0.1100175110       -0.7766206085       -1.4985023708
 O          2.6525245784        2.4029814842        0.6473897283
 C          0.3905572265        2.1313397476       -0.9723516279
 C         -0.7523262672        2.3871483370       -0.0183719690
 C         -0.9166616400        3.6240198052        0.5936142437
 C         -1.9471748398        3.8309092271        1.4937031217
 C         -2.8141925111        2.8033912318        1.8187891116
 C         -2.6565794012        1.5627421820        1.2113366691
 C         -1.6496481809        1.3714989106        0.2783233238
 H         -1.5408983399        0.4077354778       -0.1914155684
 N         -3.5064146230        0.4896658933        1.5159682964
 S         -2.8741844471       -1.0621546489        1.5785455608
 O         -3.8053456468       -1.7881038996        2.4217049114
 O         -1.5005995369       -1.0632972228        2.0297141918
 C         -3.0197948899       -1.6948745679       -0.0768595204
 C         -2.1461838505       -2.6811775073       -0.4849289290
 C         -2.2910740035       -3.2221587201       -1.7520518602
 C         -3.3013647422       -2.7683356859       -2.5840248342
 C         -4.1722001141       -1.7773195763       -2.1579248931
 C         -4.0357962905       -1.2353002630       -0.8905277672
 H         -4.6899405112       -0.4588563614       -0.5298956802
 H         -4.9539207230       -1.4225296828       -2.8104553660
 H         -3.4064811315       -3.1866315646       -3.5728788661
 H         -1.6067194105       -3.9853510918       -2.0863470412
 H         -1.3599035860       -2.9920335375        0.1849931970
 H         -4.1639952366        0.6578412065        2.2635930533
 H         -3.6016025743        2.9543999560        2.5414643333
 H         -2.0649008072        4.7959196405        1.9628419298
 H         -0.2184904325        4.4188483552        0.3764726207
 H          1.0723559156        2.9910064653       -0.9129521526
 C         -0.1172736062        2.0171612039       -2.3958469012
 C         -0.4489467557        3.2679378032       -3.1512708628
 C          0.7582111336        2.4630158871       -3.5267693450
 H          0.7396553747        1.8955918670       -4.4448476335
 H          1.7325281059        2.8586515214       -3.2785988177
 H         -1.3006024425        3.2568084068       -3.8135260831
 H         -0.2917109991        4.2119339802       -2.6519927256
 H         -0.7389213528        1.1471205414       -2.5604698467
