  62
        -98.94436868
 C         -2.3371975488       -1.1108098106        0.2380474708
 C         -2.3952093290        0.1430797586       -0.4174097307
 C         -3.3901956492        1.0898186191        0.1048131081
 C         -4.1403776092        0.7597273302        1.1710812684
 C         -5.1778436295        1.6270822008        1.8307433273
 C         -6.5545425094        1.5782839297        1.1536321172
 C         -6.6443744594        2.3008168682       -0.1911060837
 H         -7.7037849894        2.3772481777       -0.4436437539
 H         -6.2615857996        3.3161271083       -0.0829349048
 C         -5.9133888991        1.5928199169       -1.3403333728
 H         -5.7148708390        0.5554070273       -1.0616899715
 H         -6.5573106690        1.5699605758       -2.2223317728
 C         -4.5985935292        2.2522244767       -1.7571540934
 H         -4.7989018293        3.2458765362       -2.1641609946
 H         -4.1481269990        1.6488144259       -2.5493785626
 C         -3.5730515593        2.3871908682       -0.6237625934
 H         -2.6094645593        2.6622332479       -1.0605757736
 H         -3.8775020596        3.1726061189        0.0677994556
 H         -6.8435908592        0.5326597995        1.0255644784
 H         -7.2700335795        2.0396019504        1.8381306666
 H         -5.2839823695        1.2597316519        2.8537237477
 H         -4.8243552797        2.6579746009        1.8671420061
 O         -4.0208496691       -0.4376147691        1.8033552498
 C         -3.1359890789       -1.3993697194        1.3484078810
 O         -3.1502717588       -2.4581045287        2.0073675623
 H          0.4664260613       -0.7765098523       -1.6422246293
 C          0.8327546713       -1.0545918411       -0.6668057889
 C          0.0262067313       -1.7924698902        0.1854125218
 C          0.5046090112       -2.1010071087        1.4555932622
 C          1.7619697111       -1.6877600980        1.8545439519
 C          2.5646465411       -0.9508538288        1.0007022411
 C          2.0874780812       -0.6198771204       -0.2598871293
 N          2.8872165511        0.1387794488       -1.1314471801
 S          3.6562414808        1.5019384396       -0.5271807916
 O          2.9311759606        2.0865706008        0.5774052376
 O          3.8759759508        2.3532394883       -1.6762794926
 C          5.2284738309        0.8779058605        0.0326168793
 C          5.9875531311        0.1397251996       -0.8544225198
 C          7.2173046311       -0.3459827197       -0.4402037091
 C          7.6667697409       -0.0844538481        0.8456305107
 C          6.8947730207        0.6610769728        1.7231996097
 C          5.6629183807        1.1491672121        1.3151631190
 H          5.0259433805        1.7281006627        1.9650720383
 H          7.2454381506        0.8635767340        2.7224929495
 H          8.6241785510       -0.4641200975        1.1658375812
 H          7.8203008613       -0.9263970803       -1.1197007783
 H          5.6029098712       -0.0391754616       -1.8444995496
 H          2.4338095412        0.3461446377       -2.0100467304
 H          3.5419093110       -0.6174194883        1.3092408209
 H          2.1217453511       -1.9390765668        2.8407731822
 H         -0.1307455687       -2.6566546880        2.1312685228
 C         -1.3739345586       -2.2042147109       -0.2003095778
 H         -1.6391662485       -3.0893769503        0.3926823932
 C         -1.5238756983       -2.5429558127       -1.6691130375
 C         -0.9157033781       -3.8088447332       -2.1908925359
 C         -2.4042824381       -3.6867544733       -2.0694862062
 H         -2.9907873980       -3.5931393244       -2.9712840364
 H         -2.9003744581       -4.2354896324       -1.2821487257
 H         -0.4779752879       -3.8028207442       -3.1773135759
 H         -0.4000061080       -4.4403825622       -1.4834644651
 H         -1.5218090584       -1.6754087634       -2.3163415385
 O         -1.6689314489        0.4705841376       -1.3932501210
