  62
        -98.94119543
 C          2.1822372105        1.0004816976       -0.0169033481
 C          2.8111954138        0.3484282862        1.0762455768
 C          3.5881835554       -0.8569881567        0.7640052863
 C          3.6377234567       -1.2919973534       -0.5078073256
 C          4.4252568050       -2.4786747529       -0.9805689538
 C          5.8395095321       -2.0710669325       -1.4169447269
 C          6.5718091719       -1.1970101730       -0.3987799921
 H          7.5682126274       -0.9975128265       -0.7987762286
 H          6.0581542122       -0.2361392862       -0.3200843667
 C          6.6965764668       -1.8194623735        0.9988352920
 H          7.7178966292       -1.6743930071        1.3568499757
 H          6.5225665733       -2.8945805851        0.9425377357
 C          5.7657797839       -1.2104686638        2.0491129832
 H          6.0854893061       -1.5641774751        3.0327922029
 H          5.8684178853       -0.1224913212        2.0431588715
 C          4.2780360453       -1.5544132770        1.9025071369
 H          4.1559764399       -2.6365295960        1.8198925522
 H          3.7673834491       -1.2201337500        2.8103339386
 H          6.4170435251       -2.9781933490       -1.6036832422
 H          5.7652688499       -1.5160058002       -2.3549838147
 H          3.9034386136       -2.9202664148       -1.8314927249
 H          4.4776239918       -3.2136083397       -0.1794635081
 O          3.0012559744       -0.6613814343       -1.5254964652
 C          2.2584542142        0.4945082814       -1.3144093168
 O          1.7373462789        0.9434382207       -2.3537602912
 O          2.7301883007        0.7663617062        2.2620402904
 C          1.3879504449        2.2548849712        0.3095361638
 C         -0.0568437005        1.8990823862        0.5500216548
 C         -0.6831038280        2.1965238288        1.7538566409
 C         -1.9976427387        1.8221881807        1.9746408090
 C         -2.7122606231        1.1469423245        1.0015172528
 C         -2.0934302267        0.8419186419       -0.2040002515
 C         -0.7782769847        1.2198520815       -0.4233412650
 H         -0.2991805350        0.9747523906       -1.3604508347
 N         -2.8124006789        0.1449667852       -1.1990869844
 S         -3.3178310148       -1.4032431088       -0.7718026541
 O         -2.4240116687       -2.0005427885        0.1953711106
 O         -3.4834327601       -2.1148922457       -2.0205139619
 C         -4.9184728491       -1.1320351808       -0.0409132391
 C         -5.8863631332       -0.5125983260       -0.8076247935
 C         -7.1379270253       -0.2934786205       -0.2547086457
 C         -7.3995091893       -0.6975540827        1.0462917636
 C         -6.4180362533       -1.3214220404        1.8012343008
 C         -5.1632162535       -1.5426065720        1.2547508092
 H         -4.3660813731       -2.0167530783        1.8047663667
 H         -6.6229045012       -1.6347983900        2.8123081769
 H         -8.3742251686       -0.5251368636        1.4746178090
 H         -7.9037755443        0.1912701735       -0.8383661752
 H         -5.6412183836       -0.2182366213       -1.8144264807
 H         -2.3115790072        0.1010552637       -2.0766307928
 H         -3.7352667285        0.8513408638        1.1680702734
 H         -2.4704695758        2.0569513161        2.9158923414
 H         -0.1257883542        2.7059309524        2.5262050914
 H          1.8047668676        2.6036669391        1.2673580595
 C          1.5805973667        3.3721491408       -0.7071224833
 C          0.4801922847        3.9222527301       -1.5602091086
 C          1.0220410406        4.7362291970       -0.4264479333
 H          1.6283267772        5.6011650395       -0.6482865338
 H          0.4001617094        4.8429218125        0.4496408058
 H          0.7293589960        4.2046653448       -2.5718259986
 H         -0.5083246527        3.5031178572       -1.4583448993
 H          2.5633467055        3.3356280519       -1.1660941027
