  62
        -98.93503313
 C         -2.7233461374       -0.6151629062       -0.2392978566
 C         -2.0875034851        0.3587190941       -1.0431591816
 C         -2.3244035978        1.7710329438       -0.6878074401
 C         -3.1077906752        2.0738289866        0.3628756299
 C         -3.5336421713        3.4053735163        0.9457527251
 C         -2.8465305926        4.7001072694        0.5199971511
 C         -1.3923427952        4.8343877873        0.9751841320
 H         -0.9646187616        5.7198203716        0.5002498345
 H         -1.3826758485        4.9992571192        2.0555566547
 C         -0.4910201431        3.6346513786        0.6925212589
 H          0.4975721215        3.8492481213        1.1085071818
 H         -0.8648521593        2.7551227130        1.2217983543
 C         -0.3055370977        3.2806319601       -0.7809949285
 H          0.4389801061        2.4800527019       -0.8265495666
 H          0.0884071904        4.1431741006       -1.3224536884
 C         -1.5674020363        2.7808985602       -1.5020031613
 H         -1.2533696484        2.2676656932       -2.4154935485
 H         -2.2095105522        3.6073423361       -1.7938230076
 H         -3.4102456175        5.5162624250        0.9799912321
 H         -2.9270544998        4.8311552627       -0.5551029112
 H         -4.6041610573        3.4943340754        0.7304375882
 H         -3.4472220737        3.2945986066        2.0315394146
 O         -3.7237861993        1.1002244699        1.0960185615
 C         -3.5341552495       -0.2423557237        0.8362698922
 O         -4.1415240065       -1.0023942032        1.6171140655
 O         -1.3444326855        0.0947961278       -2.0276590740
 C         -2.5291433020       -2.1152408053       -0.4182273618
 C         -1.2174780446       -2.5165856716        0.2144630565
 C         -1.1774847409       -3.3224792576        1.3458551939
 C          0.0274902751       -3.6095379666        1.9648430478
 C          1.2139438843       -3.0890235278        1.4787056070
 C          1.1813370403       -2.2838487787        0.3483616361
 C         -0.0219730487       -2.0201217524       -0.2851935463
 H         -0.0387658203       -1.3794174159       -1.1543506019
 N          2.3802509743       -1.6994770213       -0.1344244358
 S          2.9852256410       -0.5399166451        0.9453178937
 O          3.6174641084       -1.2391016393        2.0360790708
 O          1.9439071052        0.3950817814        1.3127198510
 C          4.2181311560        0.2674642787       -0.0563370338
 C          3.8975565215        1.4532786474       -0.6884944812
 C          4.8479888638        2.0634490906       -1.4917468857
 C          6.0945350154        1.4770140038       -1.6506762761
 C          6.4010667032        0.2854439110       -1.0101289327
 C          5.4555312912       -0.3290932169       -0.2047462817
 H          5.6502023372       -1.2501340897        0.3189128585
 H          7.3722646339       -0.1652577723       -1.1354245600
 H          6.8320964696        1.9540352579       -2.2765132587
 H          4.6113773690        2.9905247825       -1.9887004982
 H          2.9177340859        1.8763646802       -0.5299066342
 H          2.2047521007       -1.2361417047       -1.0188304849
 H          2.1540877030       -3.2706690497        1.9738511111
 H          0.0413754305       -4.2336647650        2.8458028523
 H         -2.1024050746       -3.7014734456        1.7565624954
 H         -3.3377524645       -2.5900417942        0.1532052968
 C         -2.6249539057       -2.5741539416       -1.8593321023
 C         -2.9233682490       -4.0148978501       -2.1408500991
 C         -3.9591063495       -2.9670243615       -2.4151346486
 H         -4.1830037716       -2.7153650090       -3.4408167738
 H         -4.8125159307       -2.9072354624       -1.7551473820
 H         -2.4345747127       -4.4871993742       -2.9789786912
 H         -3.0755415371       -4.6680711027       -1.2948473796
 H         -1.9436353765       -2.0602137567       -2.5236310680
