  62
        -98.94334022
 C          1.8399734697        0.5723945805        0.2217405498
 C          2.9465296098        0.7100941111        1.0924465697
 C          4.2641810397        0.7917744912        0.4488246795
 C          4.3433198196        0.7467298206       -0.8939824805
 C          5.6241996095        0.7569842506       -1.6761101106
 C          6.1316594298       -0.6698880794       -1.9280296400
 C          6.1684766601       -1.5435133989       -0.6740672196
 H          5.1466280002       -1.7097541090       -0.3251858295
 H          6.5693132703       -2.5163656089       -0.9668955392
 C          7.0085000501       -0.9695188282        0.4754510301
 H          7.6265721103       -1.7684298579        0.8906794204
 H          7.6838021699       -0.2028805782        0.0938983697
 C          6.1903347100       -0.3927575579        1.6322880699
 H          6.8672008001       -0.2154498574        2.4723662997
 H          5.4497679502       -1.1270629679        1.9597792503
 C          5.4646234797        0.9272955118        1.3429216494
 H          6.1704239295        1.6531024718        0.9340534890
 H          5.0868913797        1.3131801121        2.2943934892
 H          7.1320865998       -0.6093700294       -2.3602897101
 H          5.4738729299       -1.1472876199       -2.6579934797
 H          5.4372462993        1.2409952601       -2.6360338308
 H          6.3726096294        1.3289943410       -1.1311735009
 O          3.2556808695        0.6358751500       -1.6985557903
 C          1.9781859396        0.5373572400       -1.1660986702
 O          1.0737470896        0.4277873394       -2.0143547601
 O          2.8373784998        0.7566214017        2.3481013797
 C          0.4482494098        0.4681463905        0.8150377100
 C         -0.2298831700       -0.8127271399        0.3947905406
 C          0.5101600403       -1.9900904997        0.3219744910
 C         -0.0831906695       -3.1777146000       -0.0576824384
 C         -1.4352115495       -3.2241553805       -0.3485846183
 C         -2.1889052997       -2.0615186506       -0.2581710287
 C         -1.5850063000       -0.8651960503        0.1055671107
 H         -2.1886674002        0.0249877396        0.1674352904
 N         -3.5622252898       -2.0720770810       -0.5452767886
 S         -4.6174772499       -1.2307068408        0.4446573211
 O         -4.1480947598       -1.1890031501        1.8097971611
 O         -5.9010023997       -1.8673892112        0.2353248815
 C         -4.6835911203        0.4131979889       -0.2347630696
 C         -4.6497406004        0.5793868183       -1.6051335096
 C         -4.7539293308        1.8594121680       -2.1256225902
 C         -4.8996990909        2.9443329184       -1.2742296206
 C         -4.9382525708        2.7599310290        0.0990857894
 C         -4.8288990405        1.4825045092        0.6265507200
 H         -4.8407572603        1.2954123297        1.6884391701
 H         -5.0510824909        3.6042761092        0.7606548091
 H         -4.9820197712        3.9391230982       -1.6830429111
 H         -4.7206750909        2.0070797976       -3.1931034003
 H         -4.5330707903       -0.2841166520       -2.2383881293
 H         -3.9347925996       -2.9758441712       -0.7983634782
 H         -1.9022011693       -4.1520673807       -0.6424859678
 H          0.5091290007       -4.0783812699       -0.1202848081
 H          1.5647456103       -1.9605563294        0.5604370409
 H          0.5961672399        0.4293427410        1.9055000100
 C         -0.3531983405        1.7095640001        0.4796524795
 C         -1.3827002506        2.2346096803        1.4336673894
 C         -0.0885641207        2.9670634805        1.2504870590
 H         -0.0977698610        3.9081455603        0.7218005785
 H          0.6468791793        2.9164811810        2.0402175889
 H         -2.2808442707        2.6740139599        1.0265636293
 H         -1.5365045204        1.6909335807        2.3540131296
 H         -0.5447327706        1.8032928696       -0.5835961005
