  62
        -98.94953424
 C         -1.6328154399        0.8110676713        0.7044246750
 C         -1.4942227091        1.5980626550       -0.4639656740
 C         -0.5044918540        2.6832759754       -0.3919158414
 C          0.2216520314        2.8413612098        0.7290631459
 C          1.2589171403        3.9064802885        0.9408080339
 C          2.6643250930        3.4411930496        0.5382887275
 C          2.7398971387        2.8055622249       -0.8501002874
 H          3.7900380085        2.5735436805       -1.0451710462
 H          2.2031082697        1.8540311352       -0.8556032223
 C          2.1914464665        3.6805673489       -1.9851824070
 H          2.1488011378        4.7239876719       -1.6687917487
 H          2.8806969735        3.6239166232       -2.8304065227
 C          0.8184776546        3.2435589886       -2.5005676760
 H          0.8265354762        2.1637820704       -2.6746428770
 H          0.6422601948        3.7326260818       -3.4628224150
 C         -0.3716602715        3.5774237148       -1.5916989338
 H         -1.2860860405        3.4308270057       -2.1743373229
 H         -0.3212983477        4.6263612196       -1.2894139452
 H          3.0150030744        2.7093198448        1.2699739519
 H          3.3329925335        4.3036531899        0.5779077734
 H          0.9814539981        4.7867253317        0.3636336509
 H          1.2650148130        4.1673015272        2.0009647833
 O          0.0983268305        2.0302634641        1.8117574539
 C         -0.8238568198        0.9945025517        1.8243005967
 O         -0.8272025127        0.3218928487        2.8750570972
 O         -2.1793850985        1.4225153274       -1.5056471477
 C         -2.6349075928       -0.3303785570        0.7388728630
 C         -2.2828069675       -1.3295483535       -0.3362272309
 C         -3.2020532440       -1.8787500742       -1.2197734928
 C         -2.7830050876       -2.7601585083       -2.2020855773
 C         -1.4482077480       -3.0960142247       -2.3348572856
 C         -0.5228555915       -2.5617337189       -1.4450001419
 C         -0.9515934513       -1.7117560025       -0.4405016419
 H         -0.2325424930       -1.3033985872        0.2546425798
 N          0.8420623175       -2.8751508658       -1.5302953481
 S          1.9703183690       -1.6918720460       -1.1629151346
 O          1.5050845320       -0.3721203833       -1.5160534126
 O          3.1794774146       -2.1351258425       -1.8268574270
 C          2.2016559589       -1.8362646731        0.5953659437
 C          2.2211543825       -0.6989540697        1.3763939391
 C          2.4157993890       -0.8223090071        2.7423436377
 C          2.5925385261       -2.0786303103        3.3000160016
 C          2.5796302854       -3.2124471693        2.5013264208
 C          2.3835342481       -3.0942262054        1.1350382318
 H          2.3638592177       -3.9511633681        0.4826485488
 H          2.7170959200       -4.1871214242        2.9411533133
 H          2.7375708719       -2.1717653569        4.3647024035
 H          2.4093641636        0.0604810906        3.3615134485
 H          2.0630776109        0.2599827521        0.9078200587
 H          1.1088675731       -3.4152711081       -2.3405399133
 H         -1.1209217701       -3.7601915285       -3.1202753198
 H         -3.5051738248       -3.1766725516       -2.8879506863
 H         -4.2426774813       -1.6077186457       -1.1497384313
 H         -2.5051135483       -0.8190917572        1.7158611219
 C         -4.0500109882        0.1982296157        0.6391648493
 C         -5.1834443416       -0.5586185499        1.2620741115
 C         -4.7134684867        0.7255503953        1.8746139781
 H         -5.3405490182        1.6002674726        1.7895474590
 H         -4.1514460546        0.6796091253        2.7962011413
 H         -6.1383100540       -0.5643693161        0.7584296560
 H         -4.9480559318       -1.4790249719        1.7745586478
 H         -4.2324010711        0.7249314347       -0.2903889438
