  62
        -98.94020581
 C         -1.6301478400       -1.4314989603        0.3864980005
 C         -1.5650167903       -0.3633714301       -0.5375619393
 C         -2.4934497502        0.7611806499       -0.3095893888
 C         -3.3262225798        0.7340025497        0.7474297915
 C         -4.3329432395        1.7478361497        1.2493030921
 C         -4.8169115298        2.8830546199        0.3503088925
 C         -5.6389053403        2.4377798202       -0.8587182773
 H         -6.5959060002        2.0465477001       -0.5043107970
 H         -5.8468986805        3.3172564103       -1.4721714170
 C         -4.9984756807        1.3625446503       -1.7333215177
 H         -4.8895882305        0.4397305702       -1.1597051079
 H         -5.6860364810        1.1486422105       -2.5561985475
 C         -3.6472014809        1.7322581303       -2.3423826082
 H         -3.3880196912        0.9525715905       -3.0637933784
 H         -3.7348330511        2.6742366105       -2.8872930079
 C         -2.4796425105        1.8484503501       -1.3463174386
 H         -1.5477362407        1.7319674202       -1.9075997190
 H         -2.4602333403        2.8305625400       -0.8795155284
 H         -3.9806967199        3.4996862999        0.0341512523
 H         -5.4588866095        3.5159218598        0.9691071129
 H         -5.1969544794        1.1648074397        1.5833217723
 H         -3.8910009692        2.1859205695        2.1510389120
 O         -3.3318803195       -0.3083686004        1.6285098813
 C         -2.5050782196       -1.4037024104        1.4747273708
 O         -2.6403652193       -2.2758218306        2.3548708807
 H          1.2116711992       -1.8408403801       -1.4850565707
 C          1.5337859496       -1.7848540903       -0.4579413808
 C          0.6851617400       -2.1983002504        0.5562395594
 C          1.1197315105       -2.0911256907        1.8744288193
 C          2.3726869607       -1.5843339408        2.1664743589
 C          3.2064532603       -1.1437272607        1.1527462387
 C          2.7725902998       -1.2325242304       -0.1629150612
 N          3.5770206394       -0.7170567202       -1.1953492514
 S          4.2213218796        0.8069618997       -0.9405999213
 O          4.3018782391        1.4174871699       -2.2499180712
 O          5.4773508599        0.6794065995       -0.2412504318
 C          3.0646646000        1.6932869595        0.0967122893
 C          3.5586783105        2.3861275093        1.1842616592
 C          2.6800435208        3.0846374192        1.9961081097
 C          1.3231085507        3.0710608193        1.7135730402
 C          0.8424399603        2.3705448595        0.6186525103
 C          1.7170506299        1.6795395697       -0.2048819702
 H          1.3432186696        1.1254441498       -1.0517872202
 H         -0.2137589298        2.3429420596        0.4013776007
 H          0.6344073110        3.6054318392        2.3489421906
 H          3.0536214312        3.6301421690        2.8476646697
 H          4.6191081906        2.3561269492        1.3758615388
 H          3.1382044591       -0.7679100501       -2.1039368512
 H          4.1777157104       -0.7240353108        1.3608084684
 H          2.6992982510       -1.5165566710        3.1928786688
 H          0.4535937408       -2.3968106608        2.6691642895
 C         -0.7255893901       -2.6496491703        0.2705472599
 H         -1.0372116099       -3.3325934504        1.0713056799
 C         -0.8878666207       -3.3529621300       -1.0609131702
 C         -0.3229742308       -4.7299279600       -1.2337859207
 C         -1.8065079608       -4.5318716400       -1.1596888201
 H         -2.3897029311       -4.6562234998       -2.0599535399
 H         -2.3202801004       -4.8429474401       -0.2617201199
 H          0.1143143688       -4.9943710499       -2.1844853709
 H          0.1722624595       -5.1743549202       -0.3836924909
 H         -0.8575557210       -2.6834738599       -1.9112830101
 O         -0.7740545007       -0.3274625000       -1.5170188896
