  62
        -98.94131244
 C         -1.6317492373        0.4824281210       -0.9639243190
 C         -2.8653226403        1.0494471806       -0.5606487655
 C         -3.9824947375        0.1057591695       -0.4117673273
 C         -3.7986863808       -1.2044869141       -0.6506321919
 C         -4.8456968844       -2.2808725831       -0.5553186407
 C         -5.0603015354       -2.8198580746        0.8656964559
 C         -5.7875832377       -1.8710859881        1.8193446594
 H         -6.7127194917       -1.5286771661        1.3545332819
 H         -6.0627152570       -2.4527464864        2.7014712198
 C         -4.9551592382       -0.6612321830        2.2665948613
 H         -5.0553450748       -0.5293370257        3.3463463790
 H         -3.8981936883       -0.8504994467        2.0648665074
 C         -5.3544359392        0.6602708820        1.6101467767
 H         -6.3683637335        0.9295093724        1.9146041827
 H         -4.6767823318        1.4391741544        1.9686707491
 C         -5.2920595685        0.6475074823        0.0773655632
 H         -6.1197282605        0.0662556166       -0.3283516843
 H         -5.3797073651        1.6773187116       -0.2774146612
 H         -4.0889293955       -3.0867447858        1.2882524946
 H         -5.6491284850       -3.7361184482        0.7807582414
 H         -5.7910344745       -1.9088323842       -0.9513005264
 H         -4.5035867423       -3.1033063712       -1.1871639628
 O         -2.5983782916       -1.7118761109       -1.0374882737
 C         -1.4933077160       -0.8921163081       -1.1854787079
 O         -0.4552912073       -1.4946579479       -1.5246499420
 H          1.9681786671        0.2773785507       -0.2943914922
 C          1.5323107022        0.9413992534        0.4362210903
 C          0.3163643666        1.5515917720        0.1650306866
 C         -0.2471630177        2.3842588987        1.1261877525
 C          0.4044822485        2.6028625393        2.3258585159
 C          1.6305930722        2.0143352555        2.5823539579
 C          2.1984949207        1.1749649445        1.6309682826
 N          3.4263701000        0.5460457822        1.8718511011
 S          4.5032972699        0.2440400518        0.6299444953
 O          5.7785601999        0.0872173506        1.2965637048
 O          4.4426551845        1.2647111493       -0.3899631765
 C          3.9983991425       -1.3305648225       -0.0268384689
 C          3.7822094878       -1.4726857628       -1.3824773427
 C          3.4068308071       -2.7117354017       -1.8760372807
 C          3.2569538059       -3.7820059661       -1.0087249604
 C          3.4822496233       -3.6243682147        0.3504012886
 C          3.8576251175       -2.3880493387        0.8495060645
 H          4.0439549416       -2.2275013442        1.8984041862
 H          3.3630825352       -4.4604514741        1.0207735282
 H          2.9602029047       -4.7439851798       -1.3958830451
 H          3.2258683419       -2.8349292521       -2.9317407718
 H          3.9038254230       -0.6127877413       -2.0228890889
 H          3.8905339007        0.8162093120        2.7262021903
 H          2.1437590020        2.1980760452        3.5141778111
 H         -0.0418215670        3.2483451360        3.0674505355
 H         -1.2033157469        2.8434293641        0.9285334259
 C         -0.3620567551        1.2956337580       -1.1595467302
 H          0.3084281747        0.6587539259       -1.7526255253
 C         -0.5774519222        2.5917229840       -1.9166799934
 C          0.6171646240        3.2895134948       -2.4918476027
 C         -0.3691342109        2.6184142041       -3.3992778998
 H         -1.0203567396        3.2356752385       -3.9998938113
 H         -0.0742095688        1.6973370431       -3.8810775769
 H          0.6436466521        4.3682704708       -2.4694489812
 H          1.5832442804        2.8260879140       -2.3518093883
 H         -1.3738308548        3.2029692996       -1.5143528107
 O         -3.0549099957        2.2736657245       -0.3344107240
