  62
        -98.92914852
 C         -2.3250986771       -0.3344356637       -0.5310303812
 C         -3.5948738302       -0.9079100516       -0.7968109888
 C         -4.7052526593       -0.4771990972        0.0653606404
 C         -4.4537841704        0.3751159866        1.0750243862
 C         -5.4829090180        0.9636758223        1.9977968397
 C         -6.2455796091        2.0968095159        1.2820080736
 C         -7.7284544278        1.8081515380        1.0473251610
 H         -8.2664655835        1.9258378579        1.9903106764
 H         -8.1039450626        2.5665083993        0.3570090334
 C         -8.0584258672        0.4198875257        0.4904219504
 H         -9.0901480400        0.4572089982        0.1342620954
 H         -8.0347129466       -0.3144639039        1.2969694989
 C         -7.1613190136       -0.0760701636       -0.6510987138
 H         -6.7070648270        0.7645666413       -1.1762302089
 H         -7.7901973804       -0.5995767693       -1.3741186230
 C         -6.0607673128       -1.0630894407       -0.2188332900
 H         -6.4019100958       -1.6324338946        0.6503663561
 H         -5.8917748362       -1.7761879571       -1.0312757744
 H         -5.7550673858        2.2886071537        0.3253052864
 H         -6.1641349435        3.0151538288        1.8654312679
 H         -4.9536781310        1.3518976964        2.8682489565
 H         -6.1698516664        0.1865307446        2.3255844661
 O         -3.2150166789        0.8660564293        1.3307903476
 C         -2.1187838973        0.5330756516        0.5427967997
 O         -1.0592939437        1.0719284521        0.9095166786
 O         -3.7902260259       -1.7483951524       -1.7157015049
 C         -1.1660918833       -0.7680108749       -1.4120383718
 C          0.0009596695       -1.1898709422       -0.5560947496
 C         -0.1052635109       -2.3629252663        0.1860180683
 C          0.9290168133       -2.7794521121        1.0017827073
 C          2.0899985018       -2.0329907550        1.0997479123
 C          2.2056628179       -0.8607455180        0.3657001788
 C          1.1703620411       -0.4527324380       -0.4672049167
 H          1.2643240490        0.4701073134       -1.0183059898
 N          3.3672576480       -0.0777803936        0.4837708614
 S          4.8571237348       -0.8673131972        0.5090686780
 O          4.9222511922       -1.8420463392       -0.5578016048
 O          5.0878487847       -1.3769909965        1.8377574908
 C          5.9646581241        0.4897595557        0.1827552711
 C          6.4328780309        0.6906520699       -1.1017771393
 C          7.2741164349        1.7643251974       -1.3481960530
 C          7.6276163531        2.6159865797       -0.3124584972
 C          7.1494856519        2.4011301644        0.9717745362
 C          6.3096866769        1.3285472869        1.2255346867
 H          5.9215355954        1.1176054483        2.2082791875
 H          7.4284953147        3.0642298532        1.7746790536
 H          8.2821461211        3.4509345435       -0.5066975510
 H          7.6500955024        1.9322450522       -2.3445647528
 H          6.1383836532       -0.0017644042       -1.8740364499
 H          3.3705069322        0.7015629905       -0.1593091020
 H          2.9044329526       -2.3432301472        1.7345124350
 H          0.8320070450       -3.6920223796        1.5711770032
 H         -1.0163241363       -2.9425276284        0.1193982237
 H         -1.5436546001       -1.6648904829       -1.9306291252
 C         -0.7901687152        0.2277755660       -2.4986734725
 C         -1.8378407891        1.0812246290       -3.1470554244
 C         -0.7886164743        1.7105224629       -2.2829494590
 H         -0.0167713407        2.2944900419       -2.7633922037
 H         -1.0712725691        2.0780047088       -1.3091746154
 H         -1.7895384374        1.2347226007       -4.2145735640
 H         -2.8440992012        1.0115979433       -2.7602728775
 H         -0.0191758830       -0.1682961979       -3.1533291845
