  62
        -98.93800102
 C         -2.4281308489       -0.4013801571        0.4731116954
 C         -3.2250188335       -0.3625262085       -0.6982971794
 C         -4.3148222331        0.6258784561       -0.6911904656
 C         -4.4725812382        1.4525784142        0.3569602128
 C         -5.5162167865        2.5280877754        0.4911627792
 C         -6.8721087947        2.0216874059        1.0018994580
 C         -7.6819935526        1.2035560536       -0.0047491823
 H         -8.6895431355        1.1008096484        0.4032058526
 H         -7.7646522589        1.7588081452       -0.9395493315
 C         -7.1177778156       -0.1966145375       -0.2837999675
 H         -7.9285265195       -0.9282376282       -0.2559889911
 H         -6.4141642126       -0.4695069138        0.5062156455
 C         -6.4225321974       -0.3422943304       -1.6375003769
 H         -6.0309297292       -1.3598920138       -1.7141829105
 H         -7.1502438964       -0.2007682784       -2.4396213083
 C         -5.2575640485        0.6316949607       -1.8568437119
 H         -4.6990590199        0.3049397147       -2.7372933663
 H         -5.6365925214        1.6375696912       -2.0355432467
 H         -6.7058824948        1.4283340887        1.9040714006
 H         -7.4616060737        2.8970253203        1.2843200866
 H         -5.6514818798        3.0298379395       -0.4673546436
 H         -5.1256666101        3.2511079065        1.2104790795
 O         -3.6574358952        1.4135431713        1.4451943583
 C         -2.6409409614        0.4794338350        1.5371701831
 O         -1.9986820994        0.5282281580        2.6066585249
 O         -3.0543983283       -1.0966533069       -1.7036924852
 C         -1.2854627158       -1.3844672344        0.6693152573
 C         -0.0002765042       -0.8258862875        0.1149580657
 C          0.0875605585       -0.3806642725       -1.2005300321
 C          1.2787042565        0.1229269069       -1.6902213193
 C          2.4004341940        0.1996329683       -0.8827346781
 C          2.3227552747       -0.2376731896        0.4322507298
 C          1.1264602450       -0.7490550384        0.9199645282
 H          1.0667898341       -1.0782864539        1.9490261867
 N          3.4523831966       -0.1450014688        1.2613616442
 S          4.9156520355       -0.7426697008        0.6963386709
 O          4.7142550298       -1.8154820788       -0.2494015128
 O          5.6739076496       -1.0656683834        1.8849561416
 C          5.6693934884        0.6537288902       -0.1102789505
 C          6.0831527792        0.5492540012       -1.4237422404
 C          6.6808284009        1.6449501854       -2.0271267024
 C          6.8541175707        2.8185686630       -1.3096954007
 C          6.4348492128        2.9064173566        0.0095796408
 C          5.8375562300        1.8146298030        0.6188503640
 H          5.5019358978        1.8413719801        1.6421826020
 H          6.5709683923        3.8209950236        0.5640059348
 H          7.3186207809        3.6701480251       -1.7813303413
 H          7.0076827934        1.5786979892       -3.0524375075
 H          5.9237410433       -0.3818914371       -1.9439584245
 H          3.2866957846       -0.4335345791        2.2145957196
 H          3.3295830333        0.5934751529       -1.2610854419
 H          1.3345702511        0.4627131032       -2.7133241702
 H         -0.7858393656       -0.4397552994       -1.8320568575
 H         -1.1644458446       -1.4652107325        1.7615230391
 C         -1.6050754422       -2.7808955382        0.1519371709
 C         -0.9277047605       -3.4161191253       -1.0209837334
 C         -0.6239854886       -3.8962978881        0.3642824648
 H         -0.9932926694       -4.8616088687        0.6760307359
 H          0.3398773851       -3.6379908453        0.7785780376
 H         -1.5298083733       -4.0357307069       -1.6677588263
 H         -0.1666343960       -2.8568449976       -1.5414917920
 H         -2.6529115355       -3.0289492052        0.2877242065
