  62
        -98.93992654
 C         -2.2743233102       -0.4219573215       -0.8171227995
 C         -3.0036508906        0.6045402787       -0.1593830003
 C         -2.5661712314        1.9797527187       -0.4096400716
 C         -1.5451206417        2.2084857485       -1.2542795120
 C         -0.9438735124        3.5472204685       -1.5808648733
 C          0.1108763574        3.9913762801       -0.5573523138
 C         -0.4513756126        4.4661302410        0.7832816758
 H          0.3610671772        4.9706854619        1.3100674753
 H         -1.2373160831        5.2027103704        0.6102609853
 C         -0.9855584619        3.3379004715        1.6774445769
 H         -0.5777527214        2.3803284914        1.3407087177
 H         -0.6261965218        3.4844758526        2.6993057967
 C         -2.5109876718        3.2471295907        1.7465252572
 H         -2.7705049813        2.3861629211        2.3681047580
 H         -2.9078307423        4.1438124709        2.2286432664
 C         -3.2037430719        3.0763752391        0.3880543374
 H         -3.1818497625        4.0138782986       -0.1668068734
 H         -4.2449711117        2.7974843587        0.5680041778
 H          0.7988315979        3.1599110206       -0.3807199432
 H          0.6788690969        4.8115415700       -1.0029080146
 H         -1.7276262929        4.3014018681       -1.6541750739
 H         -0.4612446725        3.4467794779       -2.5552322933
 O         -0.9264586112        1.2084788382       -1.9287472312
 C         -1.2181955404       -0.1226407217       -1.6784023099
 O         -0.4778426801       -0.9080199419       -2.3078300793
 O         -3.9716083304        0.3742758189        0.6137539100
 C         -2.5811964193       -1.8498848413       -0.3796433182
 C         -1.5887739290       -2.1198231397        0.7261615819
 C         -1.9598145288       -2.0854020987        2.0656933919
 C         -1.0002869187       -2.0878335673        3.0645798018
 C          0.3477026712       -2.0806736068        2.7486355116
 C          0.7206500011       -2.1380880878        1.4141087416
 C         -0.2384442690       -2.2072029293        0.4200193818
 H          0.0717995909       -2.2200556000       -0.6140890382
 N          2.0879743410       -1.9779159374        1.0563231413
 S          2.4617674201       -0.3157172571        1.1179563797
 O          3.0264741001       -0.0492479556        2.4195081594
 O          1.3058980096        0.4790487919        0.7675330092
 C          3.7138941498       -0.1676302376       -0.1416498806
 C          5.0501291798       -0.1556172965        0.2075456193
 C          6.0019927097       -0.0736312769       -0.7966888309
 C          5.6027925094       -0.0092929183       -2.1232079009
 C          4.2565322894       -0.0243943894       -2.4573598308
 C          3.2985456696       -0.1062769990       -1.4589950706
 H          2.2407781996       -0.1151078698       -1.6809151904
 H          3.9448383792        0.0251204395       -3.4884894308
 H          6.3438262993        0.0541740314       -2.9042820611
 H          7.0494271297       -0.0607938761       -0.5423400411
 H          5.3083781400       -0.2047130854        1.2524874693
 H          2.2292648910       -2.2788234482        0.0985090716
 H          1.1084719413       -1.9948006357        3.5081587614
 H         -1.3056845586       -2.0486721465        4.0995324818
 H         -3.0065909389       -2.0028858791        2.3205757420
 H         -3.5867768393       -1.8183074914        0.0593789819
 C         -2.5630302089       -2.8802654623       -1.4855421773
 C         -3.2219702181       -4.2052384724       -1.2468144260
 C         -3.8417148088       -3.2192026136       -2.1894334768
 H         -3.8055880488       -3.4222326545       -3.2490285766
 H         -4.7377416290       -2.7049942538       -1.8740394471
 H         -2.7610428577       -5.0902499325       -1.6574332152
 H         -3.6984737579       -4.3599054018       -0.2906182458
 H         -1.6622510390       -2.8651977623       -2.0840096074
