  62
        -98.93811985
 C          1.9490280670        1.0943488040       -0.1929378149
 C          2.3189601362       -0.2120807479       -0.6001956192
 C          3.5058410397       -0.7716083117        0.0697320718
 C          4.1417265245       -0.0716719172        1.0244817129
 C          5.3419380613       -0.5252023700        1.8108099968
 C          6.6803163458       -0.2968335970        1.0951753224
 C          6.9570073571       -1.2328286404       -0.0820619437
 H          8.0088090349       -1.1107272998       -0.3481904896
 H          6.8196764468       -2.2664743084        0.2369500961
 C          6.0989602860       -0.9580276572       -1.3249338073
 H          5.6595989652        0.0394182050       -1.2510173171
 H          6.7332316988       -0.9635642577       -2.2142401491
 C          4.9806437852       -1.9735519958       -1.5604289694
 H          5.4133429202       -2.9549190141       -1.7675783636
 H          4.4137982576       -1.6630889454       -2.4419531227
 C          3.9966273451       -2.1110473780       -0.3913510064
 H          3.1301982685       -2.6815136788       -0.7362822205
 H          4.4637739767       -2.6504216506        0.4326197318
 H          6.7208408270        0.7399995918        0.7536603220
 H          7.4723814031       -0.4345939662        1.8347811362
 H          5.3429006817        0.0545797247        2.7363581488
 H          5.2374922646       -1.5810531987        2.0624612284
 O          3.7366442671        1.1683584259        1.4085893059
 C          2.6505559427        1.7780205155        0.8048950960
 O          2.4077776986        2.9242094453        1.2340380971
 H         -0.3112868858       -0.4924925328        0.1559900825
 C         -0.8524226978        0.3742776533        0.5041900449
 C         -0.4487336659        1.6495131780        0.1299640077
 C         -1.1627024411        2.7437126382        0.6069006235
 C         -2.2509223313        2.5709870688        1.4429572828
 C         -2.6607764043        1.2990966863        1.7989508463
 C         -1.9576955730        0.1982627891        1.3239215311
 N         -2.3681548160       -1.1173616489        1.6424647784
 S         -3.0968104400       -1.9528388034        0.3840846104
 O         -3.5556879826       -3.1977873546        0.9590736819
 O         -2.1901789618       -2.0411487774       -0.7281116428
 C         -4.4995274312       -0.9343614372       -0.0441963847
 C         -4.3134251572        0.1325763459       -0.9007406730
 C         -5.3846953772        0.9705996553       -1.1675670702
 C         -6.6148771894        0.7307565361       -0.5746572121
 C         -6.7859263477       -0.3455635788        0.2828951619
 C         -5.7176874154       -1.1844586223        0.5570699283
 H         -5.8047296938       -2.0354435400        1.2133433090
 H         -7.7444729765       -0.5315856478        0.7399703687
 H         -7.4451970376        1.3863647316       -0.7842696518
 H         -5.2516512546        1.8068319542       -1.8348149533
 H         -3.3443413430        0.2844840215       -1.3481316924
 H         -2.9732016791       -1.1614523242        2.4518225859
 H         -3.5131898485        1.1554097414        2.4461741305
 H         -2.7868099508        3.4308206327        1.8139803511
 H         -0.8417466711        3.7378805412        0.3331733044
 C          0.7564125631        1.8543719576       -0.7526405536
 H          1.0324175519        2.9190690163       -0.6757569268
 C          0.4734881477        1.5833736605       -2.2221924761
 C         -0.5584444485        0.6201334384       -2.7159480595
 C         -0.7946231003        2.0932894344       -2.8435126066
 H         -0.7471013213        2.5401803215       -3.8250097883
 H         -1.5209914581        2.5452147679       -2.1843244062
 H         -0.3179470824        0.0520232096       -3.6021314104
 H         -1.1204867290        0.0457374640       -1.9962826755
 H          1.3767356093        1.6593221367       -2.8198901239
 O          1.7188265612       -0.8936497095       -1.4683246327
