  62
        -98.93747347
 C         -2.2380766415       -0.8960773804        0.4582246966
 C         -2.5101947335       -0.0634698002       -0.6528719175
 C         -3.3780118165        1.0998996085       -0.3959580805
 C         -3.8238402339        1.3303977963        0.8507143082
 C         -4.6776132258        2.4708914397        1.3465779296
 C         -5.8719474340        2.8914973521        0.4788499242
 C         -6.5432362616        1.7511256777       -0.3002913751
 H         -6.1787718898        0.7869796416        0.0584931961
 H         -7.6187163091        1.7815338301       -0.1159747685
 C         -6.3230715220        1.8502302576       -1.8117715717
 H         -7.0952385643        1.2656904400       -2.3176342557
 H         -6.4498674629        2.8914330376       -2.1161471052
 C         -4.9711954806        1.3435968822       -2.3130228049
 H         -4.9255367153        0.2553122889       -2.2187354087
 H         -4.8987823181        1.5759372543       -3.3781329021
 C         -3.7400326212        1.9238944182       -1.5979139917
 H         -2.8885059947        1.8499683131       -2.2798181515
 H         -3.8897755600        2.9695392992       -1.3404539013
 H         -5.5586859144        3.6636707928       -0.2224122288
 H         -6.5998232562        3.3526258757        1.1485849384
 H         -5.0336041592        2.1515995721        2.3291290916
 H         -4.0288031108        3.3372165430        1.5062411600
 O         -3.5019851039        0.5207225486        1.9011113155
 C         -2.7149104392       -0.6056918814        1.7341574294
 O         -2.5069928431       -1.2498050686        2.7840115281
 H          0.1235478299       -0.1159354036        1.1692460847
 C          0.6393531688       -0.6663563616        0.3905115862
 C          0.0034674415       -1.7498876014       -0.2033819206
 C          0.6852996803       -2.4575077666       -1.1845065741
 C          1.9588355809       -2.0740736295       -1.5688794986
 C          2.5796111837       -0.9848040306       -0.9865282561
 C          1.9118869499       -0.2766500544        0.0042236861
 N          2.5372405395        0.8359121365        0.6012313599
 S          4.0202764773        0.5645264280        1.3480683593
 O          4.1242518755       -0.7935680499        1.8307266152
 O          4.1438131027        1.6112672774        2.3392779209
 C          5.2116935951        0.8449499383        0.0553799670
 C          6.0804309766       -0.1645480609       -0.3104184133
 C          7.0052297484        0.0789101688       -1.3140808236
 C          7.0451196348        1.3207839849       -1.9293773701
 C          6.1668782478        2.3246454959       -1.5485950961
 C          5.2403927114        2.0881823352       -0.5456480476
 H          4.5438426806        2.8412235772       -0.2165837624
 H          6.2009506590        3.2889776882       -2.0294833748
 H          7.7649652407        1.5078788644       -2.7104668671
 H          7.6886208133       -0.7001051940       -1.6116410248
 H          6.0087596945       -1.1149850507        0.1937747883
 H          1.9293472325        1.3460895031        1.2262309936
 H          3.5674207048       -0.6781026928       -1.2892332827
 H          2.4737263922       -2.6305608653       -2.3369434213
 H          0.2184997702       -3.3095668483       -1.6505432842
 C         -1.3740409994       -2.1309584364        0.2850299717
 H         -1.2628613983       -2.5666194100        1.2897744414
 C         -2.0747309504       -3.1353810795       -0.6068654759
 C         -1.8591609074       -4.6048210055       -0.4093422110
 C         -3.1648681701       -3.9802154878       -0.0216669422
 H         -4.0372562659       -4.1876419721       -0.6230054438
 H         -3.3805658275       -3.8512603460        1.0295094854
 H         -1.8385372643       -5.2448634283       -1.2784811202
 H         -1.1909613227       -4.9110755774        0.3814996314
 H         -2.2143276039       -2.7666623267       -1.6164403373
 O         -2.0461969422       -0.2719348507       -1.8028600715
