  62
        -98.93896244
 C         -1.9233620126       -1.3832041948        0.2888499076
 C         -2.5636836136       -0.7299310455       -0.7894492547
 C         -3.7299737388        0.1063348034       -0.4498985870
 C         -4.1152649371        0.2183262878        0.8351217441
 C         -5.2802523536        0.9541308206        1.4638058567
 C         -6.0310569714        2.0349211736        0.6899947226
 C         -5.2115317154        3.2859230697        0.3755704569
 H         -5.0099054600        3.8147979349        1.3106375632
 H         -5.8181786758        3.9418525287       -0.2525520262
 C         -3.8708918126        3.0414063757       -0.3132658504
 H         -3.2119982494        2.4813184042        0.3539102232
 H         -3.4001137450        4.0135462338       -0.4844340758
 C         -3.9460952516        2.3190748497       -1.6573941997
 H         -2.9493535616        2.3571802972       -2.1058910409
 H         -4.6316253196        2.8493698413       -2.3211294210
 C         -4.3673412365        0.8401302553       -1.5938676982
 H         -4.0145691633        0.3509388327       -2.5064515109
 H         -5.4493200762        0.7364731764       -1.5640611501
 H         -6.8703312718        2.3411959463        1.3203976215
 H         -6.4558491086        1.6214601088       -0.2198547304
 H         -5.9974312109        0.1799252312        1.7583941606
 H         -4.8928313740        1.3839624188        2.3930303472
 O         -3.4574623760       -0.4276863649        1.8431164570
 C         -2.3499889896       -1.2227426636        1.6045373840
 O         -1.8374113931       -1.7142050703        2.6312213942
 H          0.1104361684        0.1733803720        0.7216499628
 C          0.6734375739       -0.1958811077       -0.1273168799
 C          0.3785587269       -1.4550266522       -0.6364972265
 C          1.1219436296       -1.9228989770       -1.7117495358
 C          2.1063446248       -1.1328848013       -2.2813468618
 C          2.3773644638        0.1299249432       -1.7893667769
 C          1.6546118382        0.5987595731       -0.6989736415
 N          1.9346202312        1.8731255044       -0.1772444515
 S          3.5398023004        2.2979526735        0.0309874371
 O          3.5403826528        3.2565481442        1.1138627646
 O          4.0846898034        2.7633877266       -1.2199874902
 C          4.3617642281        0.7930219922        0.5240201888
 C          5.3628511600        0.2624517919       -0.2636186422
 C          5.9611701473       -0.9260859383        0.1234022798
 C          5.5468902581       -1.5619759125        1.2831791352
 C          4.5423291511       -1.0139911232        2.0664465878
 C          3.9421679729        0.1748368108        1.6853673407
 H          3.1611329620        0.6279507255        2.2753289429
 H          4.2205829798       -1.5091186618        2.9687210437
 H          6.0086870808       -2.4899830868        1.5810897385
 H          6.7439574691       -1.3535277260       -0.4820690673
 H          5.6516214586        0.7884208932       -1.1588929628
 H          1.3816057829        2.1178592430        0.6303565302
 H          3.1253183752        0.7649927507       -2.2355483560
 H          2.6670705017       -1.5044721020       -3.1251777915
 H          0.9235919151       -2.9029421567       -2.1127572815
 C         -0.7108293665       -2.2588257070        0.0324694816
 H         -0.3456026190       -2.5688095352        1.0227413864
 C         -1.1156686811       -3.4937953755       -0.7455279227
 C         -0.3714674741       -4.7814693413       -0.5634531863
 C         -1.7556380674       -4.6311945393       -0.0096736574
 H         -2.5656035312       -5.1631530273       -0.4857715816
 H         -1.8733992804       -4.5253314173        1.0592700726
 H          0.4529588106       -4.7889612635        0.1332263759
 H         -0.2322478053       -5.4224391214       -1.4208964720
 H         -1.5005100144       -3.2559428408       -1.7304638514
 O         -2.1866247288       -0.8398151505       -1.9846135629
