  62
        -98.93703406
 C         -2.5021541102       -1.4071744103        0.1458518892
 C         -2.6193802201       -0.4172980097       -0.8588843302
 C         -3.4394806400        0.7550166602       -0.5181542295
 C         -4.0357746601        0.8348145595        0.6838196605
 C         -4.9164809701        1.9499582492        1.1802075411
 C         -4.2252228000        3.3134550691        1.3776160320
 C         -4.3417479898        4.2617406098        0.1777752125
 H         -5.2240050998        3.9883027002       -0.4022113077
 H         -4.5107043598        5.2751281296        0.5473455131
 C         -3.1220012798        4.3245247803       -0.7470662474
 H         -2.3482111998        4.9373078599       -0.2786238069
 H         -3.4264644397        4.8274274108       -1.6675812571
 C         -2.4817518198        2.9829808504       -1.1065599581
 H         -1.7723429798        3.1513214309       -1.9202049580
 H         -1.8899373599        2.6191490099       -0.2616139083
 C         -3.4805278599        1.8804041608       -1.5108326688
 H         -4.4878979199        2.2847991009       -1.5930002187
 H         -3.1969698899        1.4591167613       -2.4772910591
 H         -4.7029628200        3.7896910886        2.2352253222
 H         -3.1783160900        3.1560708188        1.6379370919
 H         -5.3083213401        1.6065101987        2.1396177809
 H         -5.7596481000        2.0660296697        0.4958431411
 O         -3.9234143202       -0.1511427011        1.6140274999
 C         -3.1452983603       -1.2701520310        1.3811940093
 O         -3.1121343704       -2.0732107916        2.3346925288
 O         -2.0772453000       -0.4789104691       -1.9962379902
 C         -1.6418129203       -2.6552412503        0.0007646886
 C         -0.1960107003       -2.3011110505        0.2577926889
 C          0.4775522296       -2.7948096812        1.3686521286
 C          1.7846023596       -2.4177896215        1.6245813889
 C          2.4414914797       -1.5341402310        0.7867334395
 C          1.7726124798       -1.0279916803       -0.3197104103
 C          0.4718869998       -1.4255949801       -0.5867278806
 H         -0.0448037701       -1.0185243295       -1.4431729104
 N          2.4194181200       -0.1005810999       -1.1622648597
 S          2.9477448900        1.3158166997       -0.4229554688
 O          2.1688835799        1.6199682990        0.7565572514
 O          2.9570067001        2.3184200103       -1.4659008282
 C          4.6277918199        0.9372337493        0.0294983111
 C          5.0215782099        0.9968773585        1.3516931812
 C          6.3350000098        0.6908525082        1.6735415411
 C          7.2257607399        0.3334995887        0.6729783009
 C          6.8149148699        0.2813987195       -0.6508561592
 C          5.5037838300        0.5861699798       -0.9791357291
 H          5.1429360900        0.5617804505       -1.9937978591
 H          7.5105481000        0.0036756900       -1.4262168193
 H          8.2464275998        0.0943520085        0.9265933208
 H          6.6563123098        0.7310243675        2.7019541811
 H          4.2920997198        1.2744280481        2.0959850613
 H          1.8680414300        0.1291150907       -1.9781440996
 H          3.4546469397       -1.2261162212        0.9881074397
 H          2.2948693495       -2.8100232920        2.4910870687
 H         -0.0391851005       -3.4604133716        2.0448598982
 H         -1.9681295304       -3.3345146107        0.7993021681
 C         -1.8168768503       -3.3604547095       -1.3294607419
 C         -1.4274663403       -4.8028034194       -1.4396028027
 C         -2.8741527203       -4.4124909793       -1.4659385026
 H         -3.4132309703       -4.4816304487       -2.3987818527
 H         -3.4778422204       -4.6297207298       -0.5965790227
 H         -0.9701041803       -5.1435508389       -2.3556199529
 H         -1.0504324704       -5.2876876500       -0.5518930030
 H         -1.6397533302       -2.7223306890       -2.1846281615
