  62
        -98.94620120
 C         -1.8092416651       -1.0520794060       -0.2729425325
 C         -3.1650003186       -1.2986695814        0.0500802251
 C         -4.1243981578       -0.2742879059       -0.3832119978
 C         -3.6777285586        0.8030072823       -1.0548907077
 C         -4.5379813749        1.9452656773       -1.5105144111
 C         -4.6028734735        3.0518161913       -0.4483925987
 C         -4.9288775820        2.5422148383        0.9554443613
 H         -4.1045472910        1.9184278337        1.3084622934
 H         -4.9784750017        3.4120347700        1.6139830423
 C         -6.2404459318        1.7508518682        1.0548007453
 H         -6.7890691456        2.0909532429        1.9356773552
 H         -6.8651448076        1.9575929352        0.1850853848
 C         -6.0597060396        0.2386597441        1.2000279177
 H         -5.3609641963        0.0293987885        2.0140102149
 H         -7.0242737150       -0.1939778845        1.4787419256
 C         -5.5735135672       -0.4990862753       -0.0540021798
 H         -5.6751206336       -1.5723474523        0.1320490117
 H         -6.2071354275       -0.2373053649       -0.9038769058
 H         -5.3541443476        3.7813407614       -0.7561970930
 H         -3.6341404627        3.5552679414       -0.4131970228
 H         -4.1072732462        2.3562296594       -2.4251116226
 H         -5.5384507884        1.5755875244       -1.7267303039
 O         -2.3690582495        0.9986734631       -1.3578949985
 C         -1.4011654062        0.0835393229       -0.9710641836
 O         -0.2416075400        0.3921553521       -1.3030391274
 H          2.0014566117       -2.0315226655       -0.1484644036
 C          1.6478293368       -1.4913764746        0.7130657911
 C          0.2938564768       -1.4082398493        0.9951640797
 C         -0.1090974868       -0.6964232009        2.1234098282
 C          0.8167863595       -0.0741717011        2.9369447972
 C          2.1672792499       -0.1412638885        2.6388240268
 C          2.5810564444       -0.8537097594        1.5210785939
 N          3.9486448593       -0.9640588438        1.2044163176
 S          4.4956382983       -0.4630370532       -0.2973489247
 O          3.8475387893       -1.2203756431       -1.3351824245
 O          5.9353598841       -0.5866186296       -0.2203287057
 C          4.0559059615        1.2637466709       -0.3832881535
 C          2.7551667546        1.6236055697       -0.6730951719
 C          2.4230171238        2.9701994438       -0.6669784101
 C          3.3838417950        3.9251158041       -0.3741300772
 C          4.6860022287        3.5448397021       -0.0847817889
 C          5.0255410907        2.2022273099       -0.0838154198
 H          6.0250299166        1.8599024811        0.1312437248
 H          5.4334119949        4.2884362932        0.1407908778
 H          3.1157092895        4.9700189153       -0.3727746680
 H          1.4067744691        3.2526949371       -0.8925504254
 H          2.0138776982        0.8741137126       -0.9021678667
 H          4.5600540776       -0.5920254938        1.9182448492
 H          2.8937431646        0.3493946338        3.2688398536
 H          0.4868658934        0.4734337580        3.8068291314
 H         -1.1648811892       -0.6391577518        2.3516405873
 C         -0.7587297893       -2.0671329453        0.1394580156
 H         -1.2918358425       -2.8050760135        0.7575567828
 C         -0.1996496539       -2.7716334598       -1.0784796501
 C          0.3420835849       -4.1637187199       -0.9600529987
 C         -0.9583796607       -3.9227123284       -1.6645387673
 H         -0.9918888327       -4.0250074624       -2.7389113328
 H         -1.8719294560       -4.2173158610       -1.1687839305
 H          1.2067160813       -4.4293376504       -1.5498444647
 H          0.3128393542       -4.6302078094        0.0131195354
 H          0.2898571763       -2.0941250352       -1.7702424768
 O         -3.5521225778       -2.3231251417        0.6740735727
