  62
        -98.94017379
 C         -1.4092309907       -1.5948699395       -0.5468103193
 C         -1.1880412799       -0.2378968198       -0.9037466100
 C         -2.3392146193        0.6706145409       -0.7597405004
 C         -3.5200307996        0.1978150119       -0.3295238100
 C         -4.7516490791        1.0214659028       -0.0921103103
 C         -4.8183068586        1.5145353236        1.3597271194
 C         -3.5232240981        2.1596560431        1.8545145490
 H         -2.7364554186        1.4026290826        1.9073117793
 H         -3.7006326378        2.5041014937        2.8760157688
 C         -3.0301098075        3.3339845123        0.9981997183
 H         -2.7234379469        4.1445225925        1.6630319178
 H         -3.8461459273        3.7113800625        0.3799836982
 C         -1.8262634778        3.0082271811        0.1113786183
 H         -1.0486901280        2.5312151409        0.7155624685
 H         -1.4223533473        3.9530339206       -0.2649861422
 C         -2.1153171585        2.1163734606       -1.1033108912
 H         -1.2339113585        2.1396453797       -1.7506069713
 H         -2.9652097583        2.5169096109       -1.6602934113
 H         -5.0433999490        0.6626163641        2.0055869699
 H         -5.6375850281        2.2310191141        1.4443225191
 H         -4.7541366086        1.8686008624       -0.7751354008
 H         -5.6250821395        0.3992314532       -0.2950786299
 O         -3.7091977404       -1.1080682978       -0.0160867093
 C         -2.6689717209       -2.0144277485       -0.0917805589
 O         -2.9935740616       -3.1671686181        0.2640522417
 H          1.2623124700       -0.6006600509       -0.0323653801
 C          1.4154437095       -1.4071889306        0.6624278103
 C          0.6569862988       -2.5614575702        0.5492938410
 C          0.8717762383       -3.5903710899        1.4613641015
 C          1.8135402885       -3.4565108099        2.4657232413
 C          2.5447769292       -2.2886421303        2.5944353906
 C          2.3365740897       -1.2559680006        1.6883687401
 N          3.0600526405       -0.0573533710        1.7685974694
 S          2.3035664613        1.3914013892        1.3899106887
 O          3.1043453920        2.3967379191        2.0639874581
 O          0.9073296414        1.3726734703        1.7621443089
 C          2.5207512013        1.6063301482       -0.3638469014
 C          3.4020342607        0.8111683172       -1.0661176911
 C          3.5642212307        1.0337555164       -2.4243418712
 C          2.8533477012        2.0438294265       -3.0518763417
 C          1.9802184118        2.8402806075       -2.3286102020
 C          1.8124400118        2.6221546683       -0.9713519019
 H          1.1329527623        3.2103591890       -0.3758130821
 H          1.4226594722        3.6234837375       -2.8177349024
 H          2.9749338612        2.2074045759       -4.1112937218
 H          4.2390235502        0.4110969157       -2.9897882010
 H          3.9315627903        0.0229245872       -0.5569599807
 H          3.6612206506        0.0350021990        2.5740647993
 H          3.2659880194       -2.1750604903        3.3896894505
 H          1.9699676880       -4.2633134296        3.1658667517
 H          0.2838078477       -4.4939898495        1.3862125620
 C         -0.3748391514       -2.7159830802       -0.5454096188
 H         -0.9719948919       -3.6046005696       -0.2882451283
 C          0.3121497582       -3.0742062513       -1.8609411087
 C         -0.2662961817       -2.7264705516       -3.1980094288
 C          1.0345689887       -2.1218525922       -2.7618501793
 H          1.9430688784       -2.4701654730       -3.2311957392
 H          1.0381117294       -1.0766915521       -2.5023803198
 H         -1.1357751813       -2.0846217111       -3.2088390491
 H         -0.2665238723       -3.4777880220       -3.9739668484
 H          0.7572676476       -4.0632398715       -1.7853813282
 O         -0.1065697597        0.2363994393       -1.3368579304
