  62
        -98.93777317
 C          2.5694663127        0.0809301942       -0.1552236831
 C          2.3911595602        1.2026404441       -0.9997447829
 C          1.8163968625        2.4138191091       -0.3906624397
 C          1.4922290353        2.3922743970        0.9134993971
 C          0.8132658133        3.4713128679        1.7109284719
 C         -0.7097091298        3.2501277454        1.7110062855
 C         -1.4526374894        3.9185456050        0.5556753076
 H         -2.4971382107        3.6038948172        0.6171118339
 H         -1.4234985088        5.0030745445        0.6862100488
 C         -0.9236694937        3.5765763832       -0.8396261232
 H         -1.7178388691        3.7862860441       -1.5597080135
 H         -0.7200217964        2.5044803681       -0.9013975697
 C          0.3233577798        4.3857721055       -1.2277568990
 H          0.1673796661        4.8366722399       -2.2101753272
 H          0.4451727569        5.2094046694       -0.5241122835
 C          1.6303111150        3.5854131938       -1.3162997173
 H          1.7255703598        3.1595953239       -2.3203743419
 H          2.4758763613        4.2698953150       -1.1854780826
 H         -1.1210685619        3.6330673251        2.6475849710
 H         -0.8933518850        2.1723285848        1.6834446598
 H          1.1802699471        3.3789494173        2.7352810693
 H          1.0709318126        4.4561737589        1.3320867492
 O          1.7025635323        1.3026821402        1.6991819208
 C          2.1817256422        0.1108541213        1.1862669529
 O          2.2328170453       -0.8120438906        2.0212208226
 H          0.3990571269       -0.9663082827       -1.1501787551
 C          0.6209474019       -1.9157012687       -0.6835257927
 C          1.9449323901       -2.2638175821       -0.4451398776
 C          2.2118838859       -3.4927375575        0.1404559345
 C          1.1694124769       -4.3280620179        0.5074093388
 C         -0.1474893145       -3.9485578671        0.3256554971
 C         -0.4231576117       -2.7237418983       -0.2734467260
 N         -1.7448589548       -2.2831093294       -0.4775471720
 S         -2.0202833393       -0.6191035327       -0.3263655511
 O         -1.6969492173        0.0142195917       -1.5809009968
 O         -1.3619825509       -0.0992067718        0.8496433665
 C         -3.7893976501       -0.6059763165       -0.1039504248
 C         -4.5899729206       -0.8654502193       -1.2007164089
 C         -5.9656093169       -0.8851362931       -1.0359549689
 C         -6.5150903641       -0.6445824824        0.2149740529
 C         -5.6992892605       -0.3821939125        1.3050557319
 C         -4.3219111783       -0.3640122615        1.1475957513
 H         -3.6470546543       -0.1603224176        1.9637819842
 H         -6.1284101071       -0.1916785618        2.2755041933
 H         -7.5861537991       -0.6590883082        0.3405308912
 H         -6.6030529953       -1.0861580982       -1.8817118472
 H         -4.1170601196       -1.0352214250       -2.1538195314
 H         -2.4176989783       -2.8154615608        0.0579728784
 H         -0.9555694748       -4.5863611862        0.6505176739
 H          1.3874200867       -5.2786769396        0.9703814675
 H          3.2303206173       -3.7830357184        0.3405700669
 C          2.9858597997       -1.2313228555       -0.8016985045
 H          2.9077280923       -1.0321995099       -1.8847029894
 C          4.4174313824       -1.6727243793       -0.5492762261
 C          5.4797313287       -0.6733845959       -0.2034213618
 C          5.0375337311       -1.6792461345        0.8144995822
 H          5.7139797900       -2.4845601563        1.0616078437
 H          4.4289704492       -1.3469590593        1.6399287115
 H          5.1706341897        0.3538022186       -0.0722538811
 H          6.4557771197       -0.7838928181       -0.6516075472
 H          4.7149597800       -2.4732551039       -1.2201420978
 O          2.6830791030        1.1854013454       -2.2283160908
