  62
        -98.94414065
 C          2.2015239298        0.7805520992       -0.0322889974
 C          2.9047473685        0.0931296313        0.9845627131
 C          3.6889148681       -1.0706406272        0.5503342558
 C          3.6641888298       -1.4330071229       -0.7456339220
 C          4.4536264033       -2.5659269877       -1.3335385695
 C          5.8209855645       -2.0858031244       -1.8400083176
 C          6.5926276618       -1.2399727322       -0.8271103455
 H          7.5520480754       -0.9836515717       -1.2814526209
 H          6.0552009620       -0.3034378931       -0.6614721231
 C          6.8348825051       -1.9297989349        0.5226868307
 H          7.8724723901       -1.7637329213        0.8198301646
 H          6.6962457418       -3.0065964596        0.4190879646
 C          5.9576708196       -1.4140695817        1.6650125395
 H          6.0219925701       -0.3240386600        1.7132453437
 H          6.3561558028       -1.8068400967        2.6042877516
 C          4.4762612484       -1.8064902496        1.5979259423
 H          4.3873967949       -2.8863123560        1.4611074188
 H          4.0188473753       -1.5435692725        2.5565717316
 H          5.6654377704       -1.4854390923       -2.7392365565
 H          6.4138540859       -2.9604984887       -2.1134038696
 H          3.8899855359       -2.9785365596       -2.1719618480
 H          4.5849149058       -3.3404953384       -0.5803424274
 O          2.9427321188       -0.7726134469       -1.6866609717
 C          2.2007781062        0.3538166336       -1.3606713897
 O          1.5964062911        0.8666245640       -2.3200346024
 O          2.8725425700        0.4327988590        2.1994706703
 C          1.3872107026        2.0068567359        0.3353571739
 C         -0.0698017814        1.7938090525        0.0036868285
 C         -0.8577401342        2.7499880980       -0.6228767493
 C         -2.1930677227        2.4955244668       -0.8852283725
 C         -2.7713044518        1.2916042318       -0.5291666341
 C         -1.9969145128        0.3332838176        0.1122141723
 C         -0.6616013160        0.5933135142        0.3780223538
 H         -0.0601968452       -0.1548058415        0.8811400757
 N         -2.5727171775       -0.8980153425        0.4720691770
 S         -4.0089588497       -0.8794890077        1.3423839324
 O         -4.1252494069        0.3163238148        2.1444498737
 O         -4.0337904013       -2.1376193726        2.0563072781
 C         -5.2722101852       -0.9000523992        0.0881168975
 C         -6.2333150402        0.0914480926        0.0612818429
 C         -7.2125020638        0.0487999180       -0.9191147094
 C         -7.2136574711       -0.9794521433       -1.8490979795
 C         -6.2427376920       -1.9691096097       -1.8066627317
 C         -5.2616534528       -1.9328095335       -0.8288047069
 H         -4.4919519941       -2.6833675683       -0.7591973862
 H         -6.2464636591       -2.7669368917       -2.5317794614
 H         -7.9756746200       -1.0102733155       -2.6117413702
 H         -7.9683158623        0.8168509363       -0.9537460739
 H         -6.1895305149        0.8736255096        0.8023059092
 H         -1.9177931507       -1.5469509480        0.8836471826
 H         -3.8084482439        1.0876267247       -0.7389992455
 H         -2.7912212930        3.2456841393       -1.3794396620
 H         -0.4259223131        3.6943101760       -0.9105108820
 H          1.4736782132        2.0980154343        1.4291048253
 C          1.9816585415        3.2447925063       -0.3032969165
 C          1.8501160745        4.5794758737        0.3655368228
 C          3.1765722416        3.8833615889        0.3368747462
 H          3.9548925016        4.2770075626       -0.2994807068
 H          3.5434904323        3.4412479927        1.2519770001
 H          1.7200672076        5.4553683106       -0.2519434272
 H          1.3189279173        4.6180531617        1.3046385507
 H          1.9546576134        3.2066925084       -1.3864992155
