  62
        -98.94080812
 C          1.5990162501        0.6308250403        0.3838323898
 C          2.7134254998        0.9016763501       -0.4488152007
 C          3.6534406699       -0.2157347199       -0.6317029605
 C          3.3944259401       -1.4158307497       -0.0844604499
 C          4.2405697602       -2.6530674497       -0.2154088097
 C          5.4028318405       -2.7229944892        0.7845994000
 C          6.5602630203       -1.7631389392        0.5060439993
 H          7.3905366905       -2.0683601489        1.1461038792
 H          6.8869651800       -1.8796145596       -0.5277611807
 C          6.2404842603       -0.2875848591        0.7836641588
 H          5.3490178104       -0.2200040189        1.4117910291
 H          7.0615271704        0.1635599112        1.3455997284
 C          6.0286123198        0.5615713404       -0.4698730714
 H          5.7717216598        1.5768257805       -0.1566662218
 H          6.9590725897        0.6112903502       -1.0397840017
 C          4.9149498096        0.0543130699       -1.3951982609
 H          4.6983789694        0.8336992296       -2.1297588912
 H          5.2424949196       -0.8419976803       -1.9212010207
 H          5.7922766905       -3.7434241892        0.7607138303
 H          5.0118835607       -2.5404801288        1.7883662401
 H          3.5792587803       -3.5027844597       -0.0330304792
 H          4.6289684599       -2.7263116900       -1.2315983897
 O          2.2799890703       -1.6525847195        0.6588633205
 C          1.3799797803       -0.6361929595        0.9305351003
 O          0.4288512406       -0.9799637393        1.6615631807
 H         -2.1067900898        1.3646378603        1.1989483005
 C         -1.8857938301        1.4465389699        0.1455103004
 C         -0.5773187302        1.6134363999       -0.2810757600
 C         -0.3220325806        1.7068778494       -1.6464177401
 C         -1.3597624208        1.6397365889       -2.5570709898
 C         -2.6638303507        1.4588376590       -2.1284150794
 C         -2.9281331803        1.3572989995       -0.7681645793
 N         -4.2421958802        1.1802797196       -0.3019920088
 S         -4.5697943997       -0.0150025800        0.8253307517
 O         -6.0123876597       -0.1209610701        0.8235399222
 O         -3.9594172894        0.3179646705        2.0857894214
 C         -3.8595871798       -1.4950721902        0.1289796621
 C         -2.5431267897       -1.8228403100        0.3815801019
 C         -2.0062381898       -2.9428205502       -0.2352583378
 C         -2.7850173500       -3.7113086106       -1.0855054173
 C         -4.1080022501       -3.3697997808       -1.3253465271
 C         -4.6496679200       -2.2493831706       -0.7183900174
 H         -5.6749934501       -1.9524867508       -0.8697076872
 H         -4.7144528602       -3.9713440911       -1.9831235067
 H         -2.3589252800       -4.5813405708       -1.5599548171
 H         -0.9758619897       -3.1956890700       -0.0383063480
 H         -1.9421468196       -1.2247548297        1.0484026215
 H         -4.9389696804        1.1663059692       -1.0334995986
 H         -3.4720827609        1.3984740986       -2.8412537191
 H         -1.1512330811        1.7200977585       -3.6131770399
 H          0.6961500993        1.8380925393       -1.9805465705
 C          0.5417150501        1.6678941804        0.7266181296
 H          0.1236086004        1.3482293207        1.6953601999
 C          1.1075552600        3.0672875305        0.9240244689
 C          0.8145729097        4.2184353001        0.0142978686
 C          0.1997946200        4.1720481106        1.3786784587
 H          0.5534718702        4.8567430509        2.1347245384
 H         -0.8550666399        3.9481518105        1.4453445291
 H          1.6131537496        4.9197218201       -0.1734466119
 H          0.1749619994        4.0500466297       -0.8373744512
 H          2.0997264601        3.0450878308        1.3627667887
 O          2.9301443396        1.9999199499       -1.0194060911
