  62
        -98.94792886
 C          1.2283325805        0.7738460315        0.3831501195
 C          2.0605770802        0.5746377208       -0.7440989006
 C          3.0356498201       -0.5169757393       -0.6284984202
 C          3.0496789602       -1.2901042087        0.4723269002
 C          3.9647468602       -2.4580908586        0.7230889006
 C          5.3422692003       -2.0661294885        1.2754174601
 C          6.2830715702       -1.4038219392        0.2680065595
 H          7.2755844603       -1.3841735590        0.7224454893
 H          6.3470609499       -2.0227523397       -0.6274483402
 C          5.8891408703        0.0281518107       -0.1200892412
 H          5.1823065405        0.4226163712        0.6133858488
 H          6.7729626603        0.6692297706       -0.0910005417
 C          5.2784337299        0.1615152200       -1.5151197911
 H          6.0223280997       -0.1066557905       -2.2685186311
 H          5.0030014500        1.2076183499       -1.6702539816
 C          4.0254754898       -0.6951839800       -1.7398841203
 H          3.5450971896       -0.3678500204       -2.6653980504
 H          4.2992771096       -1.7453068701       -1.8418284398
 H          5.1988413806       -1.4027594380        2.1314372798
 H          5.8181260703       -2.9798119684        1.6390217005
 H          3.4637697803       -3.0915010682        1.4587637511
 H          4.0878884899       -3.0304294092       -0.1970246291
 O          2.1901912705       -1.1039372680        1.5095082203
 C          1.2667963006       -0.0713389479        1.4914932400
 O          0.5415470009       -0.0125259273        2.5065077801
 H         -0.8431881399       -0.4617197486       -0.3332058393
 C         -1.2742257999        0.3431858611       -0.9086339197
 C         -0.8252758997        1.6417124811       -0.7140493905
 C         -1.3714914598        2.6536068908       -1.4936809009
 C         -2.3329405400        2.3596681704       -2.4454356405
 C         -2.7940430802        1.0668991704       -2.6185119897
 C         -2.2576897101        0.0492642407       -1.8384686593
 N         -2.7020669703       -1.2778152493       -1.9512966385
 S         -2.8443969601       -2.1842089685       -0.5502577279
 O         -1.5524612701       -2.6645900384       -0.1268562280
 O         -3.8138838003       -3.2066542886       -0.8848013972
 C         -3.5427847497       -1.0555355578        0.6430050316
 C         -4.8377267597       -0.6274281378        0.4181495817
 C         -5.4019437994        0.2956162928        1.2821391113
 C         -4.6626325391        0.7795814233        2.3512569909
 C         -3.3685241391        0.3346387432        2.5678198008
 C         -2.7987923594       -0.5923427873        1.7082013512
 H         -1.7885440194       -0.9411023173        1.8581528111
 H         -2.7836168288        0.7042527436        3.3952554405
 H         -5.0964687088        1.5052569437        3.0209289906
 H         -6.4108251694        0.6381676028        1.1184598414
 H         -5.3829023399       -1.0335803382       -0.4183351680
 H         -3.4876636905       -1.4145727795       -2.5702922782
 H         -3.5530453604        0.8435951300       -3.3522257894
 H         -2.7402349801        3.1528275501       -3.0535853209
 H         -1.0396156796        3.6702158908       -1.3613528015
 C          0.1927469006        1.8822305616        0.3751380892
 H         -0.3358548792        1.8081212022        1.3379318993
 C          0.8615106507        3.2385563315        0.2909310683
 C          0.2337797310        4.4312661819        0.9457376878
 C          1.4694957711        3.8189688621        1.5313792478
 H          2.4038019811        4.3534159819        1.4472705873
 H          1.3763823612        3.2455835626        2.4426727981
 H          0.3220987510        5.3917869716        0.4609241972
 H         -0.6992928089        4.2822468223        1.4677036181
 H          1.3931430505        3.3829021609       -0.6422910119
 O          1.9944050300        1.2675120802       -1.7928057609
