  62
        -98.93687442
 C          2.4120938746        1.0756749599       -0.2048737209
 C          2.4968975722       -0.1583257601        0.4863751632
 C          3.8543416717       -0.5857556333        0.8578844442
 C          4.9079672717        0.2055967332        0.5911331282
 C          6.3458526099       -0.0866918850        0.9240503730
 C          7.0577118590       -0.9697216657       -0.1100616052
 C          6.6393243590       -2.4405875690       -0.1081261684
 H          7.3639509655       -2.9802775086       -0.7209926910
 H          6.7110908082       -2.8362256096        0.9054136305
 C          5.2326150364       -2.7004806743       -0.6652619901
 H          4.9001101442       -1.8313600646       -1.2378638750
 H          5.2647437043       -3.5445360966       -1.3579478820
 C          4.1809750701       -3.0253688180        0.3957986264
 H          4.4343377639       -3.9678766997        0.8861757279
 H          3.2176149701       -3.1555442916       -0.1044940337
 C          4.0143332752       -1.9439358256        1.4714942419
 H          3.1053654444       -2.1598497356        2.0384256087
 H          4.8647106705       -1.9567815028        2.1527730238
 H          6.8938743943       -0.5456936196       -1.1034963441
 H          8.1284383159       -0.9186318744        0.1003340457
 H          6.8571874283        0.8774809855        0.9639145456
 H          6.4067802409       -0.5538535069        1.9072957523
 O          4.7757951605        1.4165106290       -0.0139570731
 C          3.5375150472        1.8710233239       -0.4364311660
 O          3.5664235267        2.9909674575       -0.9852730499
 O          1.5072708020       -0.8739445805        0.7866174530
 C          1.0838598690        1.6300189639       -0.6883710041
 C          0.0289663372        1.4852974582        0.3806377256
 C          0.2219323239        2.1330717347        1.5987806013
 C         -0.7205103501        2.0440074658        2.6040190912
 C         -1.8879665544        1.3268192899        2.4087099750
 C         -2.0877709462        0.6734473503        1.1991887474
 C         -1.1311412810        0.7516011553        0.1964581344
 H         -1.3054661663        0.2148835671       -0.7211031585
 N         -3.2495697831       -0.0826182674        0.9756885397
 S         -3.9085885980       -0.0976842729       -0.5771158933
 O         -3.2716761675       -1.1314974539       -1.3534152906
 O         -3.8773011739        1.2335739258       -1.1412912732
 C         -5.5889209702       -0.5722302672       -0.2110417834
 C         -6.5589038378        0.4055746345       -0.0951410186
 C         -7.8554027092        0.0301008602        0.2199936766
 C         -8.1578258542       -1.3090046067        0.4160714492
 C         -7.1739073956       -2.2792628872        0.2953951919
 C         -5.8758933276       -1.9109197020       -0.0207829579
 H         -5.0807353703       -2.6294295021       -0.1338143169
 H         -7.4133748680       -3.3196407208        0.4453469778
 H         -9.1673205964       -1.5987932039        0.6615126523
 H         -8.6230552654        0.7815603901        0.3110184055
 H         -6.2791142118        1.4329350288       -0.2645242961
 H         -3.9554746733        0.0555320795        1.6855684712
 H         -2.6297258045        1.2625175309        3.1904216648
 H         -0.5517060657        2.5462990387        3.5448903477
 H          1.1306427566        2.7018309284        1.7469141129
 H          1.2605527643        2.7092884678       -0.8354409426
 C          0.6402482247        1.0778208036       -2.0350700088
 C          1.6400869238        0.6689005310       -3.0738883634
 C          0.7958625440       -0.3670376392       -2.3975394859
 H          0.0029483023       -0.8399196211       -2.9593730433
 H          1.2574181684       -1.0166189331       -1.6706936951
 H          1.4347041944        0.9103652279       -4.1059088144
 H          2.6863237431        0.7291128201       -2.8106344623
 H         -0.2551709882        1.5743662897       -2.3997842395
