  62
        -98.94087528
 C         -2.6599064036       -1.1477354845       -0.3958220711
 C         -2.1543075186        0.0143974401       -1.0276864022
 C         -3.0279818256        1.1969114963       -0.9873336383
 C         -4.2259350406        1.1159590652       -0.3810059902
 C         -5.1868483287        2.2571932109       -0.2194631847
 C         -4.9455529735        3.0026222722        1.1006236291
 C         -3.4820885509        3.3723516322        1.3441962159
 H         -3.4378595079        3.9212388211        2.2875098235
 H         -2.8978258873        2.4586631149        1.4798472843
 C         -2.8465776989        4.2176407159        0.2315412697
 H         -2.2775978267        5.0286458252        0.6909851104
 H         -3.6271047036        4.6735100945       -0.3788974634
 C         -1.8780242758        3.4527257937       -0.6726556755
 H         -1.1458374898        2.9200099367       -0.0589632160
 H         -1.3289831586        4.1822576274       -1.2742833821
 C         -2.5207031882        2.4514206372       -1.6410186293
 H         -3.3175493115        2.9431250841       -2.2025987769
 H         -1.7487401248        2.1304175288       -2.3463764335
 H         -5.5556097798        3.9076771233        1.1027676955
 H         -5.2781270904        2.3661300941        1.9238239511
 H         -5.0773490926        2.9398971913       -1.0596884593
 H         -6.2011871385        1.8548293720       -0.2184862902
 O         -4.6820896166       -0.0203715819        0.2047941871
 C         -3.9080466975       -1.1669954122        0.2314349564
 O         -4.4351488100       -2.1273633162        0.8277602239
 H          0.7368281402       -1.7346545416       -0.9796754516
 C          0.5813112262       -1.7901383567        0.0858557718
 C         -0.6593513863       -2.1562960825        0.5818256935
 C         -0.8434328970       -2.1895865116        1.9615253631
 C          0.1904298737       -1.8643175242        2.8192357006
 C          1.4263173351       -1.4896413339        2.3204936883
 C          1.6156546623       -1.4438802248        0.9464221758
 N          2.8662934137       -1.0566969110        0.4242023573
 S          3.5645870015        0.3262567480        1.1016892603
 O          4.2243574560       -0.0543537950        2.3266186964
 O          2.5836052565        1.3822610924        1.2190354100
 C          4.7806203948        0.7301626366       -0.1361749071
 C          4.4337447732        1.5886942163       -1.1621347859
 C          5.3722883001        1.8758889470       -2.1408084163
 C          6.6325601942        1.3001223796       -2.0787786469
 C          6.9649568126        0.4393410362       -1.0433330269
 C          6.0318298708        0.1486368670       -0.0608577283
 H          6.2458794826       -0.5071846226        0.7666984411
 H          7.9462473414       -0.0046638557       -0.9984839206
 H          7.3603046771        1.5260438537       -2.8421046672
 H          5.1166184934        2.5457441721       -2.9460744979
 H          3.4443733991        2.0187920638       -1.1674541837
 H          2.8255875737       -0.9628716277       -0.5825320290
 H          2.2357370152       -1.2123774547        2.9764940331
 H          0.0332212367       -1.8945754980        3.8872636065
 H         -1.8163355770       -2.4568751023        2.3514810029
 C         -1.8386073767       -2.4261979780       -0.3208262938
 H         -2.4810503154       -3.1682671776        0.1711334369
 C         -1.4625797317       -2.9413953346       -1.6939226639
 C         -0.9568476681       -4.3446852999       -1.8354056843
 C         -2.3201984500       -3.9844026967       -2.3422193148
 H         -2.4772526200       -3.9303697044       -3.4090663752
 H         -3.1811062005       -4.3357782593       -1.7923339666
 H         -0.8908945696       -4.9413040555       -0.9381347643
 H         -0.1768827807       -4.5430963006       -2.5544097901
 H         -1.0411317719       -2.1807672189       -2.3387360873
 O         -1.0376596155        0.0736677202       -1.6069589568
