  62
        -98.94666426
 C          1.4590702188        1.4606220041       -0.4287161604
 C          2.7229198758        1.3926083740        0.2099012610
 C          3.5344915683        0.2101589706       -0.0959005687
 C          3.0578933495       -0.7256476133       -0.9372158752
 C          3.7756768449       -1.9780641777       -1.3636708414
 C          3.6477943082       -3.1479127737       -0.3781091464
 C          4.4390759241       -2.9965861623        0.9213574785
 H          4.4308788144       -3.9695199628        1.4169270262
 H          5.4778976509       -2.7596525813        0.6896028874
 C          3.8723610463       -1.9459267675        1.8866793025
 H          2.8463057244       -1.7016024417        1.6015470043
 H          3.8342201154       -2.3604350411        2.8966160223
 C          4.6827324046       -0.6518836600        1.9572453070
 H          5.6740503361       -0.8607082714        2.3657010138
 H          4.1755560170        0.0344986702        2.6401290581
 C          4.8493396243        0.0588558191        0.6078039158
 H          5.2442516174        1.0605884937        0.7943664268
 H          5.5569271429       -0.4840682315       -0.0185169960
 H          2.5925435723       -3.2946549112       -0.1401544397
 H          4.0023328002       -4.0451520332       -0.8907428804
 H          3.3349638917       -2.2790061024       -2.3164583225
 H          4.8306658374       -1.7554912920       -1.5270199127
 O          1.8438899105       -0.6195835971       -1.5366512588
 C          1.0074617512        0.4594953268       -1.2902580926
 O         -0.0759260196        0.4077009286       -1.9014038992
 H         -1.9253840492        1.8670580578       -0.9690539318
 C         -1.7895141505        1.7250031692        0.0909731231
 C         -0.6014676901        2.1095025986        0.6935148896
 C         -0.4472277322        1.8929735604        2.0600593848
 C         -1.4553450561        1.3057948770        2.8018775658
 C         -2.6320340739        0.9037625643        2.1929296349
 C         -2.7886787590        1.1051658446        0.8284253246
 N         -3.9666136146        0.6571568226        0.1902803673
 S         -4.2389524275       -0.9959272988        0.2331546850
 O         -5.2869143224       -1.2369799067       -0.7328561461
 O         -4.5284529486       -1.3822983179        1.5916447285
 C         -2.7202930439       -1.7603987718       -0.3045696143
 C         -1.7203820719       -1.9984669624        0.6162573126
 C         -0.5301521538       -2.5558225686        0.1791240015
 C         -0.3610976832       -2.8651905472       -1.1607817763
 C         -1.3737236819       -2.6160237012       -2.0725410546
 C         -2.5634035623       -2.0530417229       -1.6437502641
 H         -3.3757077247       -1.8441505254       -2.3215606321
 H         -1.2332029978       -2.8475355953       -3.1160496363
 H          0.5686896093       -3.2931713341       -1.5015355697
 H          0.2631293615       -2.7396404776        0.8879311078
 H         -1.8873269342       -1.7508285373        1.6520642856
 H         -4.0276088107        0.9679102280       -0.7698726637
 H         -3.4180343145        0.4168601516        2.7472342079
 H         -1.3231151365        1.1513051103        3.8622016337
 H          0.4830753447        2.1782261454        2.5312702673
 C          0.5596928219        2.6433638981       -0.1059370721
 H          1.1570779775        3.2965385286        0.5437552664
 C          0.1565756313        3.4198760874       -1.3410699988
 C         -0.4557479977        4.7787205498       -1.1830699272
 C          0.9347116736        4.6412847122       -1.7244211447
 H          1.1024758160        4.8365863030       -2.7730134044
 H          1.7611232235        4.9273993066       -1.0905188748
 H         -0.5742203125        5.1572489371       -0.1790464162
 H         -1.2445547313        5.0722864286       -1.8587751588
 H         -0.2022744000        2.7925512621       -2.1476868069
 O          3.1530598569        2.2806009150        0.9930774274
