  62
        -98.93389620
 C         -2.3089468023       -0.8457838298        0.0597493544
 C         -3.0991228114       -0.1653488977        1.0219266610
 C         -3.9804367160        0.9051454558        0.5290214941
 C         -3.9950184504        1.1884289638       -0.7842387082
 C         -4.7743558238        2.2561425620       -1.5106937784
 C         -6.2344925747        2.4757912871       -1.0938555624
 C         -6.9786454733        1.2085715479       -0.6481868049
 H         -7.9184109838        1.1364805388       -1.1988162459
 H         -6.3894317035        0.3230762465       -0.8929729466
 C         -7.3080205728        1.2045516509        0.8464884383
 H         -8.1241608801        0.5001516535        1.0242741621
 H         -7.6659299335        2.1970421638        1.1287894897
 C         -6.1575100082        0.8062026135        1.7701070391
 H         -6.4874823848        0.9538355343        2.8011504057
 H         -5.9400748273       -0.2589098378        1.6533791576
 C         -4.8427801096        1.5748888211        1.5601099073
 H         -5.0306177327        2.6166526953        1.3119195280
 H         -4.2778001334        1.5353404908        2.4952790390
 H         -6.7443288640        2.9144910654       -1.9533165573
 H         -6.2782032155        3.2132886643       -0.2937709805
 H         -4.2285593364        3.1992930000       -1.4133830554
 H         -4.7335524402        1.9694960427       -2.5644540450
 O         -3.2194358832        0.5120404389       -1.6766998873
 C         -2.3596625075       -0.5084801857       -1.2919316073
 O         -1.7222207091       -1.0018335500       -2.2424470829
 H          0.1913089995       -0.4851181806       -1.0374971284
 C          0.6647397664       -0.6886658276       -0.0877657805
 C         -0.0173626098       -1.4310730948        0.8663010704
 C          0.6131913673       -1.6977155423        2.0756132566
 C          1.8934424521       -1.2312826072        2.3194808606
 C          2.5678288802       -0.4887662734        1.3669378973
 C          1.9469050159       -0.2172943054        0.1545415831
 N          2.6162955968        0.5478593317       -0.8173985088
 S          4.1620988902        0.0627051173       -1.2642148577
 O          4.3518517576        0.5755536620       -2.6031052475
 O          4.3387478305       -1.3601810611       -1.0873902601
 C          5.2242555234        0.9541028185       -0.1470542843
 C          5.1237408037        2.3313027639       -0.1164307381
 C          5.9439467212        3.0432522108        0.7439766045
 C          6.8481816332        2.3700724598        1.5522118970
 C          6.9407851960        0.9875168305        1.5058155138
 C          6.1218268018        0.2691121403        0.6483237228
 H          6.1544812121       -0.8067302049        0.5821282793
 H          7.6452967927        0.4664004021        2.1338871339
 H          7.4846244801        2.9267867743        2.2217672866
 H          5.8746291874        4.1184632239        0.7823974053
 H          4.4115376097        2.8152351348       -0.7638028499
 H          2.0539373634        0.7265417515       -1.6374962308
 H          3.5637637317       -0.1208933253        1.5517298761
 H          2.3709315484       -1.4451319105        3.2633663779
 H          0.0888257796       -2.2655702837        2.8300614131
 C         -1.4046956620       -1.9481512502        0.5817483115
 H         -1.8500437866       -2.2400415367        1.5460168049
 C         -1.3983942622       -3.1855955571       -0.3064055763
 C         -0.2238304049       -3.6170588457       -1.1275764052
 C         -0.6071456636       -4.3959393134        0.0927990186
 H         -1.0525531358       -5.3711606265       -0.0318866705
 H          0.0332816988       -4.3074567234        0.9573809193
 H         -0.4237099061       -4.0375216221       -2.1015916575
 H          0.6776246485       -3.0244052711       -1.0939839853
 H         -2.3745844096       -3.3686624457       -0.7449086339
 O         -3.0649653349       -0.4416108915        2.2502037717
