  62
        -98.94020929
 C         -2.4403923369       -0.8900978374       -0.0244510679
 C         -2.6972121234        0.4749436855        0.2492540534
 C         -4.0820402277        0.7981789674        0.6162664455
 C         -4.9985165267       -0.1830670888        0.7043243862
 C         -6.4417660357       -0.0152637772        1.0958165471
 C         -7.3595426732        0.3971082683       -0.0631318742
 C         -7.2016672684        1.8431425274       -0.5345088901
 H         -7.2776618525        2.5136872099        0.3219372060
 H         -8.0449212059        2.0590008554       -1.1935484330
 C         -5.8976456830        2.1222569664       -1.2948707618
 H         -6.1174288406        2.7007297262       -2.1950755077
 H         -5.4566525120        1.1777847763       -1.6220593758
 C         -4.8536562867        2.9046260649       -0.4978252586
 H         -5.2340004787        3.9046832315       -0.2780817557
 H         -3.9598021460        3.0128845793       -1.1175962356
 C         -4.4366786627        2.2400674624        0.8208394185
 H         -5.2326284781        2.3363660308        1.5589050845
 H         -3.5455802863        2.7496078981        1.1956367502
 H         -8.3897995750        0.2571025980        0.2719947193
 H         -7.1879019495       -0.2806855063       -0.9024718653
 H         -6.5200389590        0.7151526486        1.9014855573
 H         -6.7759452825       -0.9849896436        1.4708408612
 O         -4.7018640038       -1.4880699714        0.4607485761
 C         -3.4278733325       -1.8697971379        0.0734875602
 O         -3.2997160607       -3.0930086639       -0.1398261711
 O         -1.8198738596        1.3757022908        0.1953596355
 C         -1.0491086529       -1.3278499827       -0.4406825880
 C         -0.0340098724       -0.9559380605        0.6133514464
 C         -0.3193937144       -1.2139776152        1.9520373822
 C          0.5951991180       -0.9093739085        2.9410253336
 C          1.8238538893       -0.3609691911        2.6169051845
 C          2.1207853375       -0.1037550305        1.2845181801
 C          1.1933684036       -0.3981616053        0.2939469073
 H          1.4532475098       -0.1873930498       -0.7297832878
 N          3.3516662779        0.4656462768        0.9201086999
 S          4.0689494444       -0.0416419391       -0.5222867852
 O          3.5294744847        0.7308603229       -1.6126794114
 O          3.9698880181       -1.4784922763       -0.6453206436
 C          5.7620530923        0.4367310534       -0.2273967432
 C          6.6610277833       -0.5062578633        0.2342312994
 C          7.9675573388       -0.1193863823        0.4881101953
 C          8.3502864886        1.1971953547        0.2800377392
 C          7.4370861155        2.1322045599       -0.1846331857
 C          6.1295261778        1.7518969631       -0.4417239370
 H          5.3880494385        2.4405993311       -0.8120475570
 H          7.7391992605        3.1540753810       -0.3482390427
 H          9.3675271238        1.4959121272        0.4781849351
 H          8.6806430993       -0.8446974104        0.8455510978
 H          6.3206485537       -1.5199084014        0.3727153264
 H          4.0157833681        0.4879510871        1.6818623745
 H          2.5414780868       -0.1286475367        3.3890895392
 H          0.3544691809       -1.1103367997        3.9742888221
 H         -1.2741123388       -1.6555925127        2.2056182675
 H         -1.0793181636       -2.4264504243       -0.5039577217
 C         -0.7185769185       -0.7731762022       -1.8109644187
 C          0.2277090174       -1.5024080278       -2.7149950517
 C         -1.2373288726       -1.4742258792       -3.0288571492
 H         -1.5753925238       -0.8782011190       -3.8632042177
 H         -1.8109697637       -2.3766711506       -2.8735141427
 H          0.9028241460       -0.9230688863       -3.3277171353
 H          0.6555844091       -2.4250959135       -2.3516261557
 H         -0.7010265091        0.3111957266       -1.8264616966
