  62
        -98.94579455
 C         -1.7000654699       -1.3088102980        0.3808612403
 C         -1.2928779998       -0.2153131576       -0.4205470792
 C         -1.8722519990        1.0898491424       -0.0746666881
 C         -2.6822632585        1.1910507621        0.9935538323
 C         -3.3706968678        2.4492383821        1.4352371234
 C         -4.7547330880        2.5873988231        0.7851551141
 C         -4.7498384388        2.3761520441       -0.7288108960
 H         -4.4859813693        1.3377864541       -0.9418493268
 H         -5.7724037889        2.5272124547       -1.0811034655
 C         -3.8006872087        3.3071737441       -1.4958505659
 H         -4.3244524990        3.6975387049       -2.3708703854
 H         -3.5332755981        4.1596422836       -0.8704751855
 C         -2.5252554193        2.6323024839       -2.0034531469
 H         -2.7868798999        1.7251799343       -2.5537878273
 H         -2.0369920493        3.3132984541       -2.7052899367
 C         -1.4916663589        2.2647674328       -0.9308664476
 H         -0.5676810093        1.9776436927       -1.4409257882
 H         -1.2749965583        3.1353259223       -0.3077482171
 H         -5.4219605981        1.8473058431        1.2332352440
 H         -5.1455826175        3.5801804331        1.0154104249
 H         -3.4880832673        2.4120798415        2.5198352834
 H         -2.7473099875        3.3042254420        1.1797195536
 O         -3.0050582486        0.1312850217        1.7788124218
 C         -2.5153604293       -1.1338686083        1.5005614008
 O         -2.8701343993       -2.0106970187        2.3156321304
 O         -0.4874979303       -0.3140038674       -1.3830321197
 C         -1.1515034906       -2.7074159081        0.1496525992
 C          0.3394222593       -2.6267261986       -0.0748292615
 C          1.0035773886       -3.2268827582       -1.1365178622
 C          2.3739715986       -3.0859575787       -1.2764880627
 C          3.1039101393       -2.3252564896       -0.3820825226
 C          2.4470881201       -1.7206836800        0.6837264081
 C          1.0851373801       -1.9025686195        0.8482599286
 H          0.5895910907       -1.4270308698        1.6831512092
 N          3.1326965209       -0.9014106808        1.6074404683
 S          2.7279014016        0.7265480093        1.6065075295
 O          3.5755851623        1.3256328983        2.6161170795
 O          1.3080323917        0.8818326598        1.7909227603
 C          3.2377247011        1.3066338501       -0.0027398204
 C          4.4398642813        1.9801194897       -0.1111035005
 C          4.8791044809        2.3746909003       -1.3641549804
 C          4.1168998503        2.0805899413       -2.4849753403
 C          2.9159138700        1.4001631017       -2.3588518001
 C          2.4666235504        1.0049344511       -1.1074009402
 H          1.5322405003        0.4773640115       -0.9893571601
 H          2.3179470695        1.1664168625       -3.2252265900
 H          4.4594468500        2.3831694017       -3.4619968102
 H          5.8124540611        2.9051977799       -1.4627688305
 H          4.9965920118        2.1864622189        0.7888104694
 H          4.1391787608       -0.9861592212        1.5537926878
 H          4.1679710093       -2.1913019300       -0.5074140130
 H          2.8762618780       -3.5577631584       -2.1071174232
 H          0.4472155880       -3.7881900175       -1.8689350123
 H         -1.3166790704       -3.2361327186        1.1036767489
 C         -1.8871332714       -3.5003148271       -0.9210204010
 C         -3.2991832715       -3.1656220662       -1.2970588401
 C         -2.1874445118       -2.9237979061       -2.2708931705
 H         -2.1146282325       -3.5708609256       -3.1327806209
 H         -1.8756490815       -1.9084897361       -2.4560250700
 H         -3.9850009319       -3.9782807558       -1.4847661403
 H         -3.7562639309       -2.3128232263       -0.8155586094
 H         -1.6427783319       -4.5574123072       -0.8838431618
