  62
        -98.93490509
 C         -2.3015249507        0.8173031111        0.0925907571
 C         -3.5717980097        1.2313737954       -0.3689781360
 C         -4.7356560092        0.5195501377        0.1866612685
 C         -4.5321140310       -0.4558088892        1.0894192357
 C         -5.5680745262       -1.3324666823        1.7375037695
 C         -5.7422637311       -2.6425989455        0.9505477642
 C         -6.7560182746       -2.5779803316       -0.1911929200
 H         -6.6860367007       -3.5194449179       -0.7408316175
 H         -7.7629625695       -2.5166674652        0.2267476896
 C         -6.5630889147       -1.4195544891       -1.1732727196
 H         -5.5023819162       -1.3073649996       -1.4051555024
 H         -7.0711865691       -1.6810484993       -2.1034971432
 C         -7.1288388524       -0.0887014526       -0.6557392796
 H         -7.7550943692       -0.2824362838        0.2148098923
 H         -7.7810361653        0.3467137158       -1.4156082477
 C         -6.0799071589        0.9784958864       -0.3098090264
 H         -5.8556897919        1.5711115993       -1.2023301231
 H         -6.5039951762        1.6710690026        0.4248117338
 H         -4.7628315461       -2.9299523370        0.5592301714
 H         -6.0601040730       -3.4263626756        1.6411575849
 H         -5.1913724668       -1.5728919247        2.7338221468
 H         -6.5117795391       -0.8046106024        1.8372741771
 O         -3.2886467391       -0.8214909118        1.5099562957
 C         -2.1468873922       -0.2054932751        1.0271810579
 O         -1.0822722748       -0.6501085259        1.4987867858
 O         -3.7276382666        2.1505377160       -1.2181151377
 C         -1.0630294849        1.5173494345       -0.4343804595
 C         -0.1134878096        0.5201709739       -1.0504907315
 C         -0.6061509185       -0.3972328684       -1.9754886744
 C          0.2282738239       -1.3321544289       -2.5552694177
 C          1.5717056222       -1.3726744125       -2.2257033304
 C          2.0786185869       -0.4504503008       -1.3182631185
 C          1.2376920581        0.4933199972       -0.7436579420
 H          1.6534997950        1.1922241998       -0.0388021450
 N          3.4533145250       -0.4401727331       -1.0180231155
 S          3.9942536780       -0.0851633462        0.5407327222
 O          3.4378060143       -1.0157407346        1.4978628978
 O          3.7865640622        1.3152527440        0.8072715460
 C          5.7376125943       -0.3953365176        0.3229597334
 C          6.2929901912       -1.5649004941        0.8053820192
 C          7.6447574819       -1.7981696554        0.6047579592
 C          8.4128772717       -0.8646022142       -0.0742522624
 C          7.8413850713        0.3056734137       -0.5519092964
 C          6.4914042724        0.5458805056       -0.3527023146
 H          6.0061142422        1.4440724080       -0.6969315627
 H          8.4426790190        1.0307453826       -1.0762277782
 H          9.4643506218       -1.0483728669       -0.2289319203
 H          8.0921647839       -2.7051481440        0.9783546605
 H          5.6579756257       -2.2583761801        1.3331731767
 H          3.9213243830       -1.2696680070       -1.3595201293
 H          2.2221552261       -2.1105024739       -2.6706409774
 H         -0.1704696500       -2.0423397987       -3.2642455984
 H         -1.6583493399       -0.3717155305       -2.2255329354
 H         -1.4213158712        2.1885949572       -1.2297294306
 C         -0.4321112389        2.3548443681        0.6580412630
 C          0.3455826668        3.5878715418        0.3111827190
 C         -0.9989252672        3.7081282475        0.9614817400
 H         -1.0499334768        4.0259260870        1.9920933780
 H         -1.8310424460        4.0412901702        0.3585491156
 H          1.2264547132        3.8176783238        0.8919619048
 H          0.4275329386        3.8467880014       -0.7336548991
 H         -0.0900069466        1.7562619305        1.4965926365
