  62
        -98.94066561
 C          1.9594221462        0.8507144131        0.7137901160
 C          1.8596921486        0.1831284958       -0.5327393716
 C          2.0558929150       -1.2718326751       -0.4947903202
 C          2.2321350720       -1.8971147566        0.6816423975
 C          2.4050499121       -3.3783503374        0.8837103189
 C          3.8423840808       -3.8762262662        0.6768214164
 C          4.3197338586       -3.9049711614       -0.7757237159
 H          5.2510884696       -4.4742150849       -0.7948637618
 H          3.5936724549       -4.4454818038       -1.3835906732
 C          4.5751318876       -2.5199303438       -1.3862131657
 H          5.5302149373       -2.5254924517       -1.9159353276
 H          4.6558651923       -1.7793411652       -0.5872121384
 C          3.5082203291       -2.0592718446       -2.3795021553
 H          3.7690584883       -1.0548651524       -2.7223324029
 H          3.5050464113       -2.7214263109       -3.2479898467
 C          2.0885527757       -2.0079848075       -1.7995600174
 H          1.4445132591       -1.4660941053       -2.4965997244
 H          1.6926281709       -3.0158314109       -1.6751459502
 H          3.8939390618       -4.8924226331        1.0743440633
 H          4.5152293454       -3.2526685643        1.2700447399
 H          2.1116749500       -3.5856568948        1.9153381694
 H          1.7291918946       -3.9163037845        0.2179203564
 O          2.2530109557       -1.2292910806        1.8673567868
 C          2.1182160901        0.1488766478        1.9098617907
 O          2.1539023313        0.6279016451        3.0630987781
 H         -0.6333850174        1.2207716965        1.0996498921
 C         -0.6597091379        1.9868219636        0.3362437195
 C          0.4923575302        2.7112157281        0.0542259071
 C          0.4363414320        3.6949402753       -0.9231119399
 C         -0.7399642364        3.9197852364       -1.6180417738
 C         -1.8698246996        3.1641019168       -1.3677144890
 C         -1.8259624953        2.1850340695       -0.3804912937
 N         -2.9572563579        1.4027450477       -0.0844825221
 S         -2.7123370461       -0.1945513075        0.4067397862
 O         -2.4414228729       -0.2053918668        1.8241127732
 O         -1.7396935036       -0.8485080952       -0.4389888548
 C         -4.3394748557       -0.8617533634        0.1068637647
 C         -4.5925643560       -1.5174202873       -1.0832314268
 C         -5.8693927966       -1.9998452269       -1.3249003188
 C         -6.8667466107       -1.8165421251       -0.3789179514
 C         -6.5974755734       -1.1573075066        0.8114128481
 C         -5.3228450706       -0.6730548956        1.0594774478
 H         -5.0624852601       -0.1623088463        1.9718490784
 H         -7.3743680856       -1.0192556392        1.5458497599
 H         -7.8593977138       -2.1926742249       -0.5694008039
 H         -6.0801573118       -2.5156331073       -2.2478318735
 H         -3.7827444716       -1.6433022121       -1.7841235084
 H         -3.6698050557        1.4621446630       -0.7995612094
 H         -2.7763861116        3.3222702246       -1.9319100769
 H         -0.7695380010        4.6811078901       -2.3828841923
 H          1.3191935787        4.2639214608       -1.1639484049
 C          1.7345357881        2.3497991515        0.8319992802
 H          1.5195801936        2.5183163356        1.9011724358
 C          2.9450950533        3.2055147371        0.4920845635
 C          4.3345396976        2.6565398092        0.6161928335
 C          3.7723789765        2.9737524942       -0.7351442415
 H          4.1608205639        3.8346387886       -1.2595438723
 H          3.4852903514        2.1593723642       -1.3804663981
 H          5.1046578992        3.2963247444        1.0204121696
 H          4.4359251286        1.6183732380        0.8988146892
 H          2.8101124022        4.2373759688        0.8018237888
 O          1.6264849130        0.7588568428       -1.6266509103
