  62
        -98.93785753
 C         -2.5868945213       -1.1381009189        0.5095395498
 C         -3.4422101226       -0.8504554940       -0.5832509698
 C         -4.5993337936        0.0090040788       -0.2794560058
 C         -4.7822928609        0.4639329233        0.9723446646
 C         -5.8823289954        1.3913088724        1.3989686931
 C         -5.4462324893        2.8590832912        1.2893566077
 C         -4.8093376128        3.2155905978       -0.0538489538
 H         -4.5712949078        4.2811745421       -0.0278546907
 H         -3.8636064159        2.6778263805       -0.1537564606
 C         -5.6924464107        2.9185555048       -1.2738398124
 H         -5.6512802602        3.7733816189       -1.9521851726
 H         -6.7308269223        2.8038553770       -0.9606720239
 C         -5.2677726178        1.6896876333       -2.0799187911
 H         -5.8138537141        1.6990800357       -3.0269975492
 H         -4.2028124095        1.7568023040       -2.3158036743
 C         -5.5294321421        0.3322951716       -1.4151639728
 H         -6.5698908724        0.2763878622       -1.0888631547
 H         -5.3627300371       -0.4431934379       -2.1685669871
 H         -4.7185167477        3.0636907595        2.0780737553
 H         -6.3192143560        3.4917495229        1.4599743297
 H         -6.7597393656        1.2147724412        0.7798194310
 H         -6.1324128109        1.1723000332        2.4384594978
 O         -3.9432771904        0.1623329524        1.9966813671
 C         -2.8304627496       -0.6323653180        1.7895098410
 O         -2.1434222753       -0.8264991602        2.8135526319
 H          1.0324443576       -1.8075272745        1.6380965716
 C          1.0012684498       -1.2035256399        0.7407654932
 C         -0.1555016978       -1.1814889629       -0.0240987295
 C         -0.1855685321       -0.3858980837       -1.1654798017
 C          0.9200618211        0.3622694841       -1.5261695314
 C          2.0716122317        0.3391615279       -0.7583518038
 C          2.1116075251       -0.4483961413        0.3838267156
 N          3.2721349413       -0.4624977046        1.1749975354
 S          4.7482654315       -0.7445221156        0.4251287533
 O          4.5850819011       -1.5395546645       -0.7695226210
 O          5.5951162654       -1.2991230465        1.4581425836
 C          5.3357389831        0.8822840146        0.0043134633
 C          5.4847330182        1.8038431735        1.0221639782
 C          5.9480003035        3.0726503069        0.7131544118
 C          6.2554332366        3.3956665635       -0.6003026341
 C          6.1042867481        2.4578538126       -1.6102006402
 C          5.6404915336        1.1868989243       -1.3078238797
 H          5.5040175225        0.4268752239       -2.0607356937
 H          6.3449520799        2.7106499129       -2.6303529843
 H          6.6156210162        4.3841816929       -0.8379562910
 H          6.0675111250        3.8044949860        1.4957896298
 H          5.2393773220        1.5119417780        2.0297363245
 H          3.1857176228       -1.0109888760        2.0183583510
 H          2.9339401985        0.9232678247       -1.0352604529
 H          0.8847407632        0.9734756602       -2.4153266226
 H         -1.0820862983       -0.3679134655       -1.7664369032
 C         -1.3465068490       -2.0085151813        0.3868286930
 H         -1.1556628611       -2.3752782515        1.4080656776
 C         -1.5599492177       -3.2330728813       -0.4934178238
 C         -0.8887139564       -3.4445003642       -1.8136255344
 C         -0.4676591059       -4.2534419383       -0.6261667913
 H         -0.7268615169       -5.3006787379       -0.5881570178
 H          0.4881677645       -4.0192653271       -0.1800460733
 H         -1.4629463329       -3.9216007798       -2.5929666868
 H         -0.2123703029       -2.6864155606       -2.1753924415
 H         -2.5708676279       -3.6180770460       -0.4064131131
 O         -3.2694605499       -1.2758757136       -1.7532493518
