  62
        -98.94260637
 C          2.1291925407        0.8831138858        0.1662526959
 C          2.6000315697       -0.0266670285        1.1415844157
 C          2.9235754992       -1.3757449864        0.6601685377
 C          2.7133830280       -1.6791081977       -0.6340808281
 C          3.0307927858       -3.0030544976       -1.2654311786
 C          4.4537161579       -3.0192010515       -1.8413791914
 C          5.5194892697       -2.5183019351       -0.8665487521
 H          6.4851117742       -2.6038275702       -1.3693050537
 H          5.3512573098       -1.4568713557       -0.6707880321
 C          5.5674976628       -3.2779638330        0.4664970384
 H          6.6101799081       -3.4918692242        0.7100420452
 H          5.0550328687       -4.2352498855        0.3654717514
 C          4.9812781421       -2.5124528686        1.6541055794
 H          5.4246716274       -1.5147414546        1.7014298134
 H          5.2610879807       -3.0393934559        2.5701058810
 C          3.4547941377       -2.3614398157        1.6631309834
 H          2.9864166003       -3.3385939729        1.5275033520
 H          3.1645567533       -1.9746404641        2.6445617112
 H          4.6888740745       -4.0396432239       -2.1491145509
 H          4.4739610030       -2.3828706554       -2.7291201212
 H          2.9187259184       -3.7897732218       -0.5216842445
 H          2.3161222366       -3.1759790648       -2.0721652243
 O          2.2238779556       -0.7892586344       -1.5352703276
 C          1.9177145003        0.5104985195       -1.1617749062
 O          1.4763468675        1.2210980093       -2.0849252613
 H         -0.2299278087        0.6453151778        1.2158297175
 C         -0.6066244658        1.5247282564        0.7056918447
 C          0.2858771561        2.5146449105        0.3124577186
 C         -0.2181678089        3.6329022000       -0.3376955559
 C         -1.5715739606        3.7357543937       -0.6132268471
 C         -2.4498764688        2.7327723832       -0.2466010944
 C         -1.9576781185        1.6214139093        0.4223144036
 N         -2.8499951602        0.5757318562        0.7797953513
 S         -3.2169963708       -0.4640879780       -0.5066860190
 O         -2.2529473006       -1.5464361457       -0.5429042520
 O         -3.3679629320        0.3149910867       -1.7078577035
 C         -4.8035604593       -1.0902274871        0.0115765878
 C         -4.8922075727       -2.3342051942        0.6044626136
 C         -6.1307009066       -2.7853001291        1.0340484928
 C         -7.2517340857       -1.9867041315        0.8679510272
 C         -7.1462803671       -0.7387599216        0.2716346940
 C         -5.9112985562       -0.2829773089       -0.1601680286
 H         -5.7813452597        0.6748467629       -0.6358456504
 H         -8.0204912999       -0.1212018107        0.1427720216
 H         -8.2138926363       -2.3399498308        1.2036737809
 H         -6.2152269432       -3.7558369075        1.4959503317
 H         -3.9951387385       -2.9237129797        0.7059133824
 H         -2.4564559258       -0.0007006318        1.5136855329
 H         -3.4992349405        2.7879600989       -0.4839182144
 H         -1.9440377067        4.6060379859       -1.1318845683
 H          0.4521690089        4.4180610632       -0.6471703967
 C          1.7521439436        2.2916165569        0.5915214958
 H          1.9071415623        2.3216080036        1.6805177534
 C          2.6592306269        3.3126310645       -0.0607520346
 C          2.9306523068        4.6224599091        0.6154471199
 C          4.0034028076        3.5789022466        0.5455943750
 H          4.8427410061        3.7416628808       -0.1136432657
 H          4.2549568292        3.0403010922        1.4476381532
 H          2.4579165434        4.7990561223        1.5695843048
 H          3.0365444442        5.5056446443        0.0039273677
 H          2.5917469360        3.2952837711       -1.1428652324
 O          2.7319549716        0.2730842016        2.3599219494
