  62
        -98.93761786
 C         -2.6596157346       -1.0993654754        0.1958271712
 C         -2.7136585852       -0.2228038698       -0.9138188453
 C         -3.4888273065        1.0155882872       -0.7249436167
 C         -4.0966521720        1.2434020926        0.4518386233
 C         -4.9574082955        2.4175456940        0.8451442758
 C         -4.4571053609        3.8179323402        0.4596698410
 C         -2.9301364978        3.9770980170        0.4138147588
 H         -2.6486135306        4.8568558333        0.9958157098
 H         -2.4482066390        3.1142279815        0.8774028735
 C         -2.3908379436        4.1626879933       -1.0069748944
 H         -1.4043355760        4.6288905619       -0.9492418564
 H         -3.0474452667        4.8530955107       -1.5408376655
 C         -2.2387425889        2.8822120062       -1.8277610652
 H         -1.4103898293        2.2846630616       -1.4366134756
 H         -1.9719163210        3.1670833639       -2.8481302470
 C         -3.4802884135        1.9769230190       -1.8781988077
 H         -4.3950385404        2.5629639889       -1.9216082856
 H         -3.4121196210        1.3648831705       -2.7814590635
 H         -4.8696054337        4.0975387307       -0.5087653030
 H         -4.8725048590        4.5135232876        1.1906786382
 H         -5.9549933893        2.2653986714        0.4235047099
 H         -5.0530712888        2.3483746127        1.9313681822
 O         -4.0227547233        0.3651907879        1.4932626591
 C         -3.2959993084       -0.8099129891        1.4001761066
 O         -3.2880855326       -1.4957685403        2.4440243169
 O         -2.1455972842       -0.4595669417       -2.0102971092
 C         -1.8534040090       -2.3810501460        0.1033951801
 C         -0.4153883319       -2.0684119441       -0.2378524606
 C          0.3296300616       -2.8100400246       -1.1451362393
 C          1.6481516237       -2.4786736095       -1.4063452762
 C          2.2513730967       -1.4070143021       -0.7748675934
 C          1.5209697481       -0.6676235498        0.1464529471
 C          0.2042042945       -1.0088723608        0.4134878280
 H         -0.3616256298       -0.4327951925        1.1369993109
 N          2.1178870190        0.4327956051        0.7862039685
 S          3.6172070167        0.2186163255        1.5107632769
 O          3.8012985255       -1.1440844529        1.9538810903
 O          3.6914249115        1.2414813198        2.5313094643
 C          4.7765471760        0.6039839507        0.2160825541
 C          4.6587222192        1.8241343704       -0.4201915573
 C          5.5583835846        2.1442665113       -1.4242589639
 C          6.5565616136        1.2455916082       -1.7706373507
 C          6.6633413079        0.0259976402       -1.1199159156
 C          5.7657396181       -0.3010561704       -0.1152792439
 H          5.8057687486       -1.2395942928        0.4142379828
 H          7.4399795331       -0.6710325167       -1.3908139624
 H          7.2551919968        1.4978157175       -2.5526773680
 H          5.4778368284        3.0913837950       -1.9330392199
 H          3.8707500382        2.4945686698       -0.1197133912
 H          1.4941134462        0.9306015547        1.4045662014
 H          3.2744137215       -1.1400943738       -0.9836382173
 H          2.2127359318       -3.0607905171       -2.1185082825
 H         -0.1237071614       -3.6459127582       -1.6519820674
 H         -1.8734417712       -2.8278549373        1.1090476009
 C         -2.5081467158       -3.3408789212       -0.8687775478
 C         -2.3943335110       -4.8209842012       -0.6653537413
 C         -3.6983214970       -4.1277247319       -0.4118679344
 H         -4.5112606770       -4.2837096102       -1.1049283422
 H         -4.0178429301       -3.9913032628        0.6114659363
 H         -2.3155603337       -5.4567978195       -1.5343135196
 H         -1.8317549837       -5.1675216129        0.1885758259
 H         -2.5189021078       -2.9596459490       -1.8832859432
