  62
        -98.93451974
 C         -1.4718015094       -1.7082488684        0.1120682147
 C         -1.7393741881       -0.6894066060        1.0605260324
 C         -2.5681295919        0.4461334077        0.6258443236
 C         -2.9870920172        0.4880946415       -0.6511599171
 C         -3.8445358984        1.5263780431       -1.3291755992
 C         -3.4773431280        2.9939611112       -1.0593605534
 C         -4.5028806879        3.7284203768       -0.1935575358
 H         -4.4223855231        4.7992826088       -0.3928904198
 H         -5.5024767953        3.4137754670       -0.5006576264
 C         -4.3495574318        3.5260747833        1.3128735689
 H         -3.4625842150        4.0607710344        1.6591921694
 H         -5.2158396631        3.9838125782        1.7962165643
 C         -4.2442405793        2.0703025392        1.7716608588
 H         -4.5459987998        2.0289447382        2.8203042472
 H         -4.9391732870        1.4427500614        1.2150685827
 C         -2.8232725993        1.4958140253        1.6729972418
 H         -2.5549936128        1.0129986437        2.6180545376
 H         -2.1010680134        2.3062483727        1.5331692418
 H         -2.4847925266        3.0479152842       -0.6129959108
 H         -3.4200707796        3.5046601998       -2.0223379328
 H         -4.8883266910        1.3482707925       -1.0578884843
 H         -3.7566017274        1.3130720831       -2.3969756465
 O         -2.6791485167       -0.4937682518       -1.5421345290
 C         -1.8837337801       -1.5787306356       -1.2128066134
 O         -1.6409375932       -2.3247658213       -2.1846891423
 O         -1.2970171909       -0.7342345621        2.2407884422
 C         -0.5700952179       -2.8340142691        0.5945823288
 C          0.8604998423       -2.3563316237        0.5109323766
 C          1.7280851407       -2.4421457780        1.5923344302
 C          2.9955228210       -1.8888783014        1.5277614854
 C          3.4047873776       -1.2047796672        0.3966510177
 C          2.5466418209       -1.1258459249       -0.6913756091
 C          1.3019904019       -1.7288987781       -0.6453815021
 H          0.6427185287       -1.6520548366       -1.4988344292
 N          2.9158579923       -0.3047917789       -1.7997475774
 S          2.1650278193        1.2043151823       -1.6353233051
 O          0.7255761365        1.0794293868       -1.5365462329
 O          2.6444825203        2.0082810345       -2.7389850996
 C          2.8339398701        1.7902850471       -0.0968524470
 C          4.0775870885        2.3910032099       -0.0930131695
 C          4.6165050936        2.8026118972        1.1154583319
 C          3.9085565743        2.6017991047        2.2911492250
 C          2.6608041672        1.9970005182        2.2694645815
 C          2.1149250112        1.5845231673        1.0643364357
 H          1.1488864438        1.1046299132        1.0082214309
 H          2.1083224295        1.8354509071        3.1811991216
 H          4.3299750557        2.9184265892        3.2321138893
 H          5.5855790445        3.2744127902        1.1375558326
 H          4.5871443551        2.5259025842       -1.0327223151
 H          2.6185279945       -0.6963967023       -2.6847902153
 H          4.3678927542       -0.7238354670        0.3483938293
 H          3.6568116817       -1.9609344890        2.3769441212
 H          1.3910653332       -2.9193740453        2.5001798136
 H         -0.8092565757       -2.9738076170        1.6580706847
 C         -0.7485774462       -4.1581235930       -0.1162640517
 C         -0.3295541993       -5.4173679572        0.5800039037
 C         -1.7843901997       -5.1230967394        0.3738862258
 H         -2.3341462464       -5.6976780377       -0.3559401239
 H         -2.3728354500       -4.8310341873        1.2313479169
 H          0.1248133083       -6.2003759915       -0.0070267711
 H          0.0667375836       -5.3302259891        1.5800042012
 H         -0.5951373252       -4.0976419900       -1.1855656801
