  62
        -98.93781860
 C         -2.4635132205       -0.9064295397        0.7390619569
 C         -3.5286310124       -0.9447799454       -0.1938311933
 C         -4.6682491985       -0.0600780927        0.0976092381
 C         -4.6382206619        0.7304163463        1.1849376082
 C         -5.7034046644        1.7183103711        1.5610466211
 C         -5.4184568131        3.1014607177        0.9591188741
 C         -5.0888219093        3.0706423115       -0.5333621770
 H         -4.9370897284        4.1035884185       -0.8542183562
 H         -4.1406539994        2.5475635970       -0.6791981214
 C         -6.1672813011        2.4168246127       -1.4085020773
 H         -7.1113157910        2.3748266231       -0.8639563957
 H         -6.3288500865        3.0412541447       -2.2897368714
 C         -5.8114164371        1.0174657043       -1.9137377684
 H         -6.5315561634        0.7424630524       -2.6890913525
 H         -4.8221855282        1.0361456533       -2.3782744347
 C         -5.8273093737       -0.0957469276       -0.8587798316
 H         -6.7746617492       -0.0754374353       -0.3163953634
 H         -5.7525582133       -1.0516872459       -1.3851937574
 H         -4.5692132363        3.5409775699        1.4873735029
 H         -6.2896178904        3.7371149470        1.1278748420
 H         -6.6685202253        1.3524995559        1.2160632726
 H         -5.7246604332        1.8028570180        2.6488666870
 O         -3.5936509513        0.7509267518        2.0513916645
 C         -2.4892113031       -0.0560802909        1.8491398001
 O         -1.6044084405        0.0633201563        2.7212345153
 H          1.1477269586       -0.6028073894        1.1822120086
 C          0.9451066124       -0.5771005093        0.1195853454
 C         -0.2381710954       -1.1223879493       -0.3574862001
 C         -0.4960927377       -1.0668294868       -1.7229566200
 C          0.4130572105       -0.4764920026       -2.5820867486
 C          1.5907876234        0.0696728060       -2.1029783612
 C          1.8561494550        0.0228047792       -0.7410598033
 N          3.0395664101        0.5960310952       -0.2419099985
 S          4.4627205932        0.2946658343       -1.1023629729
 O          4.5502246838        1.2445118457       -2.1833002747
 O          4.5256354547       -1.0990551652       -1.4807112749
 C          5.6974110596        0.6620396518        0.1284046818
 C          6.2473740865       -0.3727452968        0.8610194383
 C          7.1917598628       -0.0784974869        1.8318564550
 C          7.5655791104        1.2383305038        2.0541393444
 C          7.0044427324        2.2660997294        1.3106271783
 C          6.0603791354        1.9789869795        0.3376454550
 H          5.6049546159        2.7434295303       -0.2699649642
 H          7.3000798361        3.2880572798        1.4849740531
 H          8.3013591288        1.4645014780        2.8096526666
 H          7.6319627413       -0.8754740141        2.4092991091
 H          5.9338492034       -1.3821680279        0.6476279969
 H          3.1615828027        0.4208908250        0.7460944244
 H          2.3090037014        0.5267296638       -2.7649428760
 H          0.2026608641       -0.4396370487       -3.6407004086
 H         -1.4210224836       -1.4741534374       -2.1008449541
 C         -1.2100236491       -1.7584855357        0.6084409258
 H         -0.7441027343       -1.7463430182        1.6030377278
 C         -1.4967298999       -3.2000332617        0.2373475470
 C         -0.4533509295       -4.2375219881        0.5181640055
 C         -1.7158144139       -4.2056492107        1.3253130758
 H         -2.4498684808       -4.9815664392        1.1684985574
 H         -1.6598885561       -3.8581855702        2.3469400055
 H         -0.3169456721       -5.0363132314       -0.1944718661
 H          0.4607877028       -3.9121034523        0.9918637198
 H         -2.0854717323       -3.3078499552       -0.6631576185
 O         -3.5549914945       -1.6726593234       -1.2209184700
