  62
        -98.93212771
 C          2.5746676003        1.1614295607        0.1580098895
 C          3.0922578106        0.2356183510        1.0962726397
 C          4.3533491306       -0.4495619590        0.7556776296
 C          4.9445889003       -0.1605617193       -0.4183067306
 C          6.2076490602       -0.7392346494       -0.9993750607
 C          6.0114701702       -2.1587143895       -1.5540122003
 C          5.2137435805       -3.0951964693       -0.6507865198
 H          4.2277137205       -2.6639514994       -0.4686920197
 H          5.0626230005       -4.0313978795       -1.1946219295
 C          5.8756651108       -3.4318102189        0.6833503101
 H          5.2529182510       -4.1852465688        1.1723960105
 H          6.8533772008       -3.8810448089        0.4954786101
 C          6.0549017509       -2.2635960186        1.6558792498
 H          6.9063992508       -1.6473069986        1.3798423294
 H          6.2861154612       -2.6894569383        2.6366619298
 C          4.8156413309       -1.3933417286        1.8396569198
 H          4.9563557310       -0.7689428984        2.7303274896
 H          3.9569971310       -2.0335653186        2.0721958601
 H          6.9943683002       -2.5895249995       -1.7525009403
 H          5.4791553900       -2.0794338499       -2.5049921002
 H          6.5021034400       -0.0826308396       -1.8211425510
 H          7.0024566404       -0.7197487491       -0.2595947109
 O          4.4075094200        0.7316142404       -1.2964723508
 C          3.2247961500        1.4105735104       -1.0511119807
 O          2.8896784098        2.1794470101       -1.9697048009
 O          2.5226937808       -0.0101520087        2.1952781898
 C          1.2926021203        1.8761489207        0.5438771795
 C          0.0762484503        1.1564808804        0.0203281400
 C         -0.0407683100        0.8073147400       -1.3213513099
 C         -1.1783037200        0.1688948298       -1.7815659094
 C         -2.2164670298       -0.1375016801       -0.9189189791
 C         -2.1083793495        0.2016957103        0.4226281307
 C         -0.9658139495        0.8448723906        0.8815745403
 H         -0.8810819793        1.0983516809        1.9301154402
 N         -3.1569735493       -0.1170051195        1.3028431811
 S         -4.7033266995        0.4066027503        0.9010788312
 O         -4.6550165397        1.5997476600        0.0885726309
 O         -5.4046284792        0.5120861306        2.1616202813
 C         -5.3889087595       -0.9442083401       -0.0337235882
 C         -5.4733296793       -2.1817347399        0.5736833122
 C         -6.0131651794       -3.2407626202       -0.1384046974
 C         -6.4592542797       -3.0449101006       -1.4370994074
 C         -6.3706195799       -1.7954507307       -2.0314940178
 C         -5.8309289998       -0.7319116605       -1.3248423682
 H         -5.7389855500        0.2561230194       -1.7472617685
 H         -6.7186049901       -1.6451071611       -3.0408501977
 H         -6.8792814297       -3.8708905108       -1.9890798271
 H         -6.0846087792       -4.2137791700        0.3203674829
 H         -5.1212797491       -2.2907773196        1.5858732921
 H         -2.9529181992        0.0905554008        2.2700329310
 H         -3.1033511698       -0.6356236302       -1.2750488988
 H         -1.2574068502       -0.0935427605       -2.8257146793
 H          0.7655093199        1.0492198599       -1.9974080001
 H          1.2621913206        1.8108701310        1.6435572796
 C          1.3018098001        3.3559979506        0.1850318091
 C          0.4681618798        3.9603433402       -0.9001436509
 C          0.1278274701        4.2229031406        0.5343088691
 H          0.3111139901        5.2052481207        0.9425968588
 H         -0.7512888497        3.7366569306        0.9317075494
 H          0.9106181597        4.7509418100       -1.4864013412
 H         -0.1843228702        3.3152073100       -1.4666159406
 H          2.2846405101        3.7944146807        0.3280550088
