  62
        -98.94661020
 C          2.4889592074        0.3554123226       -0.0344273045
 C          2.2787110736        1.4937584375       -0.8460009957
 C          1.6038090044        2.6235050860       -0.2003309903
 C          1.2325948097        2.5282562589        1.0895207153
 C          0.5070404207        3.5834281604        1.8793856544
 C         -1.0131090889        3.5605813138        1.6649059645
 C         -1.4882870053        4.1320757646        0.3279501188
 H         -2.5657455375        4.2870278191        0.4128437215
 H         -1.0283927971        5.1078232757        0.1648724857
 C         -1.2178828006        3.2199557743       -0.8764733452
 H         -1.0288605974        2.2047231860       -0.5200283647
 H         -2.1106130080        3.1807620235       -1.5057081916
 C         -0.0588427220        3.6659622090       -1.7683914749
 H         -0.3075432938        4.6178792860       -2.2439136944
 H          0.0736721328        2.9194552247       -2.5557761505
 C          1.2812637790        3.8239832605       -1.0394585391
 H          2.0690064460        3.9221473807       -1.7909962357
 H          1.2708394784        4.7232960413       -0.4239874454
 H         -1.4668357816        4.1433102587        2.4704274983
 H         -1.3588958200        2.5274979091        1.7598191217
 H          0.9003857486        4.5703690393        1.6327194632
 H          0.7110908048        3.3789841103        2.9327174782
 O          1.4968233311        1.4340848812        1.8513670687
 C          2.0880249086        0.3097533969        1.3013856615
 O          2.2240749846       -0.6426697639        2.0963775354
 O          2.6306700359        1.5576300134       -2.0562491773
 C          3.0728096896       -0.8999020934       -0.6570475415
 C          2.0986931974       -2.0391370668       -0.4758956038
 C          2.4828477721       -3.3334844610       -0.1518127890
 C          1.5282336686       -4.3129804984        0.0639843193
 C          0.1798759368       -4.0157493540       -0.0053755482
 C         -0.2143087921       -2.7269439767       -0.3459973414
 C          0.7439143840       -1.7679071732       -0.6227857649
 H          0.4284875775       -0.7728521824       -0.8973797539
 N         -1.5802627283       -2.3682504082       -0.4187088060
 S         -2.1003738873       -1.1255680788        0.6100704314
 O         -1.2704617208        0.0373091889        0.4519310505
 O         -2.2388955094       -1.6496902597        1.9547728283
 C         -3.7159423604       -0.8129477301       -0.0752235921
 C         -3.8152026388        0.0293119838       -1.1653613289
 C         -5.0620016598        0.2566727987       -1.7257207574
 C         -6.1824671651       -0.3617252660       -1.1910584147
 C         -6.0673069647       -1.2046330487       -0.0961541759
 C         -4.8227793529       -1.4353447072        0.4688636199
 H         -4.6878111606       -2.0722337074        1.3281603487
 H         -6.9403772496       -1.6817046719        0.3189972603
 H         -7.1515607118       -0.1828831843       -1.6293350438
 H         -5.1543187369        0.9138742626       -2.5753761510
 H         -2.9182864699        0.4938562985       -1.5417416910
 H         -2.1785267225       -3.1672431417       -0.2436767646
 H         -0.5631321043       -4.7699944464        0.2081919930
 H          1.8393575447       -5.3148977969        0.3189550354
 H          3.5290957856       -3.5732401924       -0.0521797940
 H          3.1685801141       -0.6810265217       -1.7314308264
 C          4.4478888700       -1.1923304549       -0.0938045975
 C          5.4875721453       -1.8667508319       -0.9372534773
 C          5.6196461163       -0.4115281195       -0.6063902157
 H          6.3815539869       -0.1058713944        0.0947707681
 H          5.4267032049        0.3121161991       -1.3847719556
 H          6.1645610959       -2.5612294670       -0.4629152935
 H          5.2164104981       -2.1322834179       -1.9478088446
 H          4.4194685742       -1.4165592983        0.9670237011
