  62
        -98.93537127
 C          2.1686034104        1.3575526207        0.5433551299
 C          1.7668366208        0.0764044906        1.0127360499
 C          2.7982745211       -0.9626920891        1.0515693299
 C          4.0691913310       -0.6443371787        0.7486159599
 C          5.2456061912       -1.5820112284        0.7646277998
 C          5.4123895214       -2.3942547384       -0.5271950702
 C          4.3705987717       -3.4925559087       -0.7448641101
 H          4.7291745919       -4.1147673286       -1.5672312501
 H          4.3194406719       -4.1242395187        0.1424345499
 C          2.9687164016       -2.9728117691       -1.0931715201
 H          3.0369653613       -1.9295304890       -1.4096157301
 H          2.5702977217       -3.5376517492       -1.9387180401
 C          1.9498369616       -3.0780358693        0.0422480599
 H          1.7575645519       -4.1295394994        0.2669225899
 H          1.0164120315       -2.6217762496       -0.2979808101
 C          2.3696352915       -2.3694973392        1.3368023499
 H          1.5056178815       -2.3271370095        2.0047200099
 H          3.1677759016       -2.9224794890        1.8313962199
 H          5.3994006712       -1.7062479684       -1.3757323702
 H          6.3998269116       -2.8602914081       -0.4929911502
 H          6.1354843211       -0.9634765681        0.8998998798
 H          5.1609400714       -2.2598412584        1.6145621998
 O          4.4354863806        0.6159776014        0.4063314698
 C          3.5034445103        1.6414962411        0.2535585099
 O          4.0206289100        2.7107831413       -0.1174335502
 H         -1.6207334099        2.5082529996        0.9296945600
 C         -1.4035812698        1.9487929897        0.0291549200
 C         -0.0873981798        1.7689368301       -0.3714969801
 C          0.1611256204        1.0191280801       -1.5162449101
 C         -0.8769473194        0.4409934498       -2.2235649000
 C         -2.1856908995        0.6015743395       -1.8033207600
 C         -2.4453978397        1.3639478994       -0.6734068600
 N         -3.7949724297        1.4780162190       -0.2309804500
 S         -4.1646611893        0.3316364489        0.9558442301
 O         -5.5928314893        0.4369606685        1.1663407901
 O         -3.3567447693        0.5364193292        2.1393680300
 C         -3.7682124189       -1.2103198110        0.1699787401
 C         -2.4970557987       -1.7349738206        0.3004025700
 C         -2.2084479684       -2.9306184805       -0.3395526900
 C         -3.1798182283       -3.5690339108       -1.0952778999
 C         -4.4489814484       -3.0237541112       -1.2179471099
 C         -4.7484874887       -1.8315051813       -0.5793974599
 H         -5.7209155389       -1.3705819115       -0.6369803499
 H         -5.2021089783       -3.5225055814       -1.8064527499
 H         -2.9437953980       -4.4978752608       -1.5902717399
 H         -1.2215052083       -3.3548600403       -0.2444685400
 H         -1.7562353189       -1.2098522204        0.8851171900
 H         -3.9957221499        2.3889202490        0.1628081200
 H         -3.0041849193        0.1434376592       -2.3341460900
 H         -0.6642783193       -0.1489334101       -3.1019418600
 H          1.1858832505        0.8676015304       -1.8281345001
 C          1.0400481201        2.3743989604        0.4286193299
 H          0.6553359701        2.5321193603        1.4525666499
 C          1.4404514997        3.7386873105       -0.1091080101
 C          1.3864219595        4.0823938605       -1.5643443801
 C          0.4093467194        4.7039974402       -0.6136384201
 H          0.5236738391        5.7477261502       -0.3632104301
 H         -0.6167103105        4.3715383399       -0.6650641001
 H          2.1848267494        4.6874757907       -1.9654088601
 H          1.0152268997        3.3368086004       -2.2505887901
 H          2.2646549696        4.1655458208        0.4486707599
 O          0.5880092808       -0.1836413497        1.3744307299
