  62
        -98.94687951
 C          1.1476509954        1.1560785380       -0.1791734756
 C          2.0070685272        0.8418319240        0.9076374917
 C          2.8341432983       -0.3615861508        0.7633273693
 C          2.7235346899       -1.1004610322       -0.3552629367
 C          3.5551616814       -2.3093178421       -0.6713700368
 C          4.8239895655       -1.9216385190       -1.4440334483
 C          5.6062530874       -0.7711332797       -0.8105140802
 H          6.4962204270       -0.6073921743       -1.4220930085
 H          5.0074136209        0.1408253410       -0.8655375577
 C          6.0248983921       -1.0140798996        0.6463793935
 H          5.9703394964       -2.0789294643        0.8756644243
 H          7.0672079009       -0.7110246494        0.7661299059
 C          5.2123098098       -0.2303664522        1.6789359868
 H          5.1908625797        0.8265981220        1.4017864296
 H          5.7243523459       -0.3048968342        2.6420339215
 C          3.7682449268       -0.7030370106        1.8898004463
 H          3.7597946153       -1.7768584771        2.0873180614
 H          3.3767927695       -0.1874621775        2.7714229534
 H          5.4653580208       -2.8017194163       -1.5187429664
 H          4.5370480057       -1.6238688585       -2.4551468422
 H          3.8258901197       -2.8134410540        0.2545322007
 H          2.9617632676       -2.9868437062       -1.2870683798
 O          1.8631073516       -0.7945602325       -1.3554622155
 C          1.0571397606        0.3312388166       -1.3006001000
 O          0.3275927116        0.4604500565       -2.3052207012
 H         -1.5524879202        1.0298300008       -1.3894122911
 C         -1.9192394362        1.3781736110       -0.4354388618
 C         -1.0833698305        2.1227793802        0.3847411015
 C         -1.5672171469        2.5410964091        1.6185603422
 C         -2.8541484014        2.2226858108        2.0188355691
 C         -3.6802706296        1.4697853188        1.2028603540
 C         -3.1998825399        1.0413016710       -0.0271653823
 N         -4.0101961726        0.2115973810       -0.8411523832
 S         -4.1739981729       -1.3452829820       -0.2412841604
 O         -4.7365719602       -2.1302609702       -1.3159865140
 O         -4.9434155819       -1.2861518732        0.9753997583
 C         -2.5143904195       -1.8947709344        0.1208217498
 C         -1.8298856649       -2.6242827497       -0.8296489043
 C         -0.5324080387       -3.0274263633       -0.5597407030
 C          0.0611462668       -2.6798436558        0.6433268898
 C         -0.6311834697       -1.9270559283        1.5786189921
 C         -1.9340380993       -1.5337500341        1.3206784008
 H         -2.5067787097       -0.9625044999        2.0327376132
 H         -0.1575277589       -1.6419061100        2.5045753130
 H          1.0715685343       -2.9924366809        0.8542282992
 H          0.0131672298       -3.6034463976       -1.2898518748
 H         -2.3270980708       -2.8746391277       -1.7532152295
 H         -3.6615185591        0.1509963958       -1.7889191280
 H         -4.6734304783        1.1837496890        1.5088178835
 H         -3.2153479964        2.5572536848        2.9793878989
 H         -0.9204500145        3.1054494224        2.2742838455
 C          0.3295486614        2.4312390326       -0.0459566575
 H          0.8095174498        2.9952589520        0.7648887772
 C          0.3434808510        3.2866788831       -1.2979114396
 C          0.0235579387        4.7458783333       -1.1840004020
 C          1.4259240931        4.3063472456       -1.4780278142
 H          1.8225654109        4.4667252821       -2.4693483251
 H          2.1634572603        4.3970755221       -0.6938377231
 H         -0.1890075743        5.1362203277       -0.2003041415
 H         -0.5464200778        5.2110040652       -1.9735034942
 H          0.0032736064        2.7643003572       -2.1824429294
 O          2.0843651362        1.5467384276        1.9484364903
