  62
        -98.93820034
 C         -2.1436414659       -1.2269154217       -0.1211068479
 C         -2.5917424414       -0.1006882466       -0.8480643379
 C         -3.9843959551        0.3223298842       -0.6092373958
 C         -4.7456968578       -0.3636020385        0.2637284093
 C         -6.1947241803       -0.1938947545        0.6706492090
 C         -6.9536234292        1.0894588392        0.3433507691
 C         -6.4560739269        2.3328303623        1.0796649255
 H         -7.0022952944        3.1977360148        0.6968578283
 H         -6.6989048603        2.2291581789        2.1402514947
 C         -4.9575319335        2.6060445043        0.9754637216
 H         -4.7432068023        3.5154789300        1.5434365635
 H         -4.4017945270        1.7943333279        1.4494834562
 C         -4.4253073661        2.8092258751       -0.4418540112
 H         -3.3891934886        3.1490514007       -0.3581078695
 H         -4.9957445185        3.5959018647       -0.9396742290
 C         -4.4290900055        1.5578446023       -1.3371064808
 H         -5.4010337148        1.4043840287       -1.8000157705
 H         -3.7040858380        1.7174275986       -2.1407104510
 H         -6.9614705831        1.2600791254       -0.7291177216
 H         -7.9914136062        0.9218932187        0.6442910253
 H         -6.7304304085       -1.0365446901        0.2195358728
 H         -6.2200935903       -0.3578033055        1.7526388477
 O         -4.2678883402       -1.4530721073        0.9347791557
 C         -2.9697316625       -1.9018153203        0.7752336981
 O         -2.6753649406       -2.8904895477        1.4767129397
 H          1.3025493630       -0.5917592224       -1.7970141618
 C          1.2176320812       -0.1665175109       -0.8095481031
 C          0.2475911329       -0.6292415305        0.0643481575
 C          0.1689325315       -0.0587413304        1.3325179812
 C          1.0227680382        0.9611543535        1.7050672083
 C          1.9774901482        1.4351357112        0.8218774602
 C          2.0706218919        0.8671767238       -0.4408614622
 N          3.0430111974        1.3360236549       -1.3386716107
 S          4.5933931868        1.5882013122       -0.7671175512
 O          4.6635260990        2.8523226741       -0.0777030728
 O          5.4495000391        1.4518709489       -1.9243852893
 C          4.8789247533        0.2551840215        0.3845618964
 C          5.1034572065        0.5313375155        1.7175813050
 C          5.2857691381       -0.5222335816        2.5992505382
 C          5.2364436444       -1.8272374672        2.1350479545
 C          5.0130554130       -2.0886018703        0.7916332011
 C          4.8314722781       -1.0393669953       -0.0941646665
 H          4.6629695113       -1.2091700930       -1.1453568033
 H          4.9770437586       -3.1048418002        0.4331683216
 H          5.3733685814       -2.6464683946        2.8231752734
 H          5.4615531446       -0.3220408425        3.6439468210
 H          5.1323964355        1.5603897499        2.0368573439
 H          3.0440694489        0.8664622306       -2.2317333057
 H          2.6397215718        2.2429295281        1.0878102350
 H          0.9433534448        1.3963443906        2.6897856512
 H         -0.5815068010       -0.4246943986        2.0204676051
 C         -0.7211487118       -1.7303309813       -0.2913471015
 H         -0.5987750514       -2.5407612254        0.4412638095
 C         -0.5278191015       -2.2979800762       -1.6816196636
 C          0.5325975866       -3.3273989765       -1.9301557538
 C         -0.9131623559       -3.7220270398       -1.9410377239
 H         -1.3758399392       -3.9668165185       -2.8854397235
 H         -1.2977367021       -4.2914044344       -1.1073519965
 H          1.0629594688       -3.3079137344       -2.8704602028
 H          1.1336965613       -3.6364757688       -1.0886863630
 H         -0.7381466932       -1.5758370193       -2.4622913870
 O         -1.8705845369        0.5236601570       -1.6695701427
