  62
        -98.94713807
 C         -1.6389322585       -1.5230312454       -0.2457524137
 C         -2.8378222608       -1.2219080304        0.4494678055
 C         -3.6200900626       -0.0920547600       -0.0672613959
 C         -3.1693265015        0.5841252612       -1.1395283154
 C         -3.8367145071        1.7892702768       -1.7357078716
 C         -3.3139144377        3.0927769114       -1.1147205115
 C         -3.2682369444        3.0762695464        0.4130251779
 H         -2.5389854019        2.3326393949        0.7428329878
 H         -2.9047695867        4.0535244554        0.7379834819
 C         -4.6204353775        2.7931732001        1.0825208870
 H         -5.4296690335        2.9681821899        0.3724218798
 H         -4.7565651284        3.4956155063        1.9074637367
 C         -4.7586024281        1.3872712722        1.6691463120
 H         -3.9006314222        1.1709991524        2.3106174922
 H         -5.6513470878        1.3686248800        2.2999893540
 C         -4.8959251488        0.2504002589        0.6485706356
 H         -5.1862797029       -0.6526164740        1.1934575806
 H         -5.6873550877        0.4892302112       -0.0647884029
 H         -3.9508263335        3.9125597361       -1.4521028560
 H         -2.3039608996        3.2760330157       -1.4876328125
 H         -3.6325433249        1.8002273902       -2.8078557173
 H         -4.9116371389        1.7103674706       -1.5841237901
 O         -2.0204149815        0.2619748281       -1.7849395148
 C         -1.2233781469       -0.7922561648       -1.3584915659
 O         -0.2033709793       -0.9629020083       -2.0528601795
 H          1.6664189147       -2.2848446756       -0.9122656950
 C          1.6282288245       -1.8748583946        0.0841292688
 C          0.4796624796       -2.0164981011        0.8469165034
 C          0.4520436337       -1.4547982440        2.1207775684
 C          1.5459648161       -0.7700982475        2.6163336158
 C          2.6817757507       -0.6074587830        1.8417610847
 C          2.7120692153       -1.1536823719        0.5658225776
 N          3.8366128500       -0.9347139249       -0.2516056312
 S          4.3766112416        0.6486343977       -0.3440790789
 O          4.9381490745        0.7895191323       -1.6698012825
 O          5.2892120119        0.9024520594        0.7445841024
 C          2.9338868549        1.6864001684       -0.1574726417
 C          1.8379424936        1.4653800750       -0.9672247860
 C          0.7206646993        2.2699908495       -0.8138402667
 C          0.7164361344        3.2802512505        0.1346998302
 C          1.8280461714        3.4942433119        0.9349986111
 C          2.9465988529        2.6897334862        0.7908820181
 H          3.8281975820        2.8145889449        1.3985818054
 H          1.8235897094        4.2808190431        1.6722657119
 H         -0.1589213856        3.9001027925        0.2507686468
 H         -0.1424551210        2.0845018537       -1.4340048176
 H          1.8381952384        0.6687665067       -1.6944751461
 H          3.7382623049       -1.3279642713       -1.1769061242
 H          3.5383515174       -0.0595180302        2.2001412311
 H          1.5118326521       -0.3471196072        3.6086659617
 H         -0.4479118847       -1.5493995967        2.7121252676
 C         -0.7700603543       -2.6504979218        0.2899558476
 H         -1.3381340991       -3.0868734138        1.1219838563
 C         -0.5130432516       -3.7271805473       -0.7422737915
 C          0.0437070795       -5.0462852464       -0.2992870638
 C         -1.3798428132       -4.9490111876       -0.7566691058
 H         -1.6467045141       -5.3794863597       -1.7102701835
 H         -2.1615055046       -5.0164771032       -0.0143151798
 H          0.7562660234       -5.5472335708       -0.9366868293
 H          0.2296472082       -5.1780452933        0.7558800595
 H         -0.1954008075       -3.3399001371       -1.7025838943
 O         -3.2342212701       -1.8703172203        1.4537059569
