  62
        -98.93580575
 C          2.4951291376       -1.0089896724       -0.5839472625
 C          2.6290985130        0.2814746961       -1.1585126105
 C          3.9240596545        0.9457376729       -0.9785785909
 C          4.9114382583        0.3090199036       -0.3234637164
 C          6.3008663323        0.8344423592       -0.0833462020
 C          6.4186221248        1.7524045001        1.1408831121
 C          5.7979384238        3.1399528562        0.9746562549
 H          6.1401691004        3.7470832894        1.8150014899
 H          6.1795134160        3.6007900724        0.0630879703
 C          4.2628593510        3.1485638654        0.9536280143
 H          3.8859009276        2.2056857104        1.3569018141
 H          3.8933173058        3.9442024261        1.6044726953
 C          3.6480499011        3.3735097656       -0.4280849069
 H          2.5599579108        3.3221962786       -0.3320969615
 H          3.9072941978        4.3720806056       -0.7871799769
 C          4.0773708179        2.3478015740       -1.4854143974
 H          5.1070266544        2.5314381205       -1.7921624575
 H          3.4260090056        2.4592516797       -2.3559169516
 H          5.9647011851        1.2506504736        1.9984111954
 H          7.4829115287        1.8770645937        1.3530267508
 H          6.9384318447       -0.0374800361        0.0773750890
 H          6.6503886823        1.3625468462       -0.9709105824
 O          4.7547827597       -0.9363170392        0.1931077337
 C          3.5442686529       -1.6178194266        0.1073134652
 O          3.5605881956       -2.7252566204        0.6730224625
 O          1.7065081734        0.8477529285       -1.8066588140
 C          1.1513152806       -1.6919974435       -0.7585895424
 C          0.2195897928       -1.3798161327        0.3855211737
 C          0.6384498919       -1.4784307844        1.7086532157
 C         -0.2357217358       -1.1924519300        2.7412723068
 C         -1.5376793498       -0.8065890555        2.4766868905
 C         -1.9703580357       -0.7143285224        1.1582459236
 C         -1.0880725700       -0.9964298522        0.1239896459
 H         -1.4265996378       -0.8966061182       -0.8962322214
 N         -3.3051274385       -0.3811042483        0.8753693924
 S         -3.6914940284        0.4748039175       -0.5266864650
 O         -3.5943484280       -0.4165222463       -1.6548536493
 O         -2.9221671617        1.6967143053       -0.5978123476
 C         -5.4058431369        0.8365471240       -0.1976911810
 C         -5.7746484804        2.1058014740        0.2049532931
 C         -7.1098171445        2.3611406985        0.4770847496
 C         -8.0472332805        1.3479353205        0.3451546571
 C         -7.6617297871        0.0786479523       -0.0607146745
 C         -6.3291844729       -0.1828935224       -0.3359599864
 H         -5.9845913495       -1.1499563762       -0.6629654856
 H         -8.3938691604       -0.7057763884       -0.1646234785
 H         -9.0853827322        1.5493809657        0.5571651157
 H         -7.4128280704        3.3475566368        0.7893255813
 H         -5.0119141869        2.8635326055        0.2866146806
 H         -3.7883845942        0.0007725463        1.6773883439
 H         -2.2166684103       -0.5827151008        3.2853089803
 H          0.1017588920       -1.2687395472        3.7640448531
 H          1.6517046166       -1.7877715467        1.9166761710
 H          0.7177560269       -1.2307477501       -1.6616041725
 C          1.2639093009       -3.1872079117       -1.0255064265
 C          0.8395691085       -4.2347414745       -0.0450275765
 C          0.0269368910       -3.9970276377       -1.2800663326
 H          0.0470526728       -4.7362760263       -2.0664766446
 H         -0.9241252715       -3.4971792895       -1.1681206771
 H          1.4408922430       -5.1283032079        0.0206013624
 H          0.4367595876       -3.9119385745        0.9018150508
 H          2.1323347792       -3.4226158109       -1.6325673466
