  62
        -98.93994208
 C         -0.8870995381       -1.3272744706       -0.3691689536
 C         -1.8150777762       -1.4610178810        0.6926044407
 C         -2.6892977917       -0.3097017196        0.9697117810
 C         -2.5412964178        0.8071003516        0.2372955893
 C         -3.3397511214        2.0785912762        0.3284093208
 C         -4.5125626570        2.0586846597       -0.6665347270
 C         -5.7933797375        1.4147643340       -0.1374842740
 H         -6.2407146245        2.0695751311        0.6132784342
 H         -6.4933466738        1.3483183404       -0.9734886938
 C         -5.6212476989        0.0204770846        0.4708484751
 H         -4.9531659062       -0.5744182331       -0.1544791019
 H         -6.5958173323       -0.4714033307        0.4626151364
 C         -5.0936434960        0.0509774846        1.9132876275
 H         -5.1539271515        1.0701297700        2.2948891969
 H         -5.7420658762       -0.5555075200        2.5491763479
 C         -3.6665562452       -0.4854130301        2.0996936540
 H         -3.2322769433       -0.0457595089        3.0047303584
 H         -3.7025455377       -1.5665439361        2.2687947121
 H         -4.1796871446        1.5326204186       -1.5646785928
 H         -4.7454090583        3.0856906829       -0.9547755946
 H         -3.6860719520        2.2431332677        1.3445786195
 H         -2.6631291690        2.8910739359        0.0548407387
 O         -1.6320206676        0.9026291734       -0.7676422280
 C         -0.7819082781       -0.1414398534       -1.0970477922
 O         -0.0080508159        0.1293559028       -2.0350975965
 H          1.4886220356       -0.2468067378       -0.1962742188
 C          1.9472809977       -1.1185126264        0.2405602676
 C          1.3437117732       -2.3593474790        0.1112458442
 C          1.9746352697       -3.4656088011        0.6704095400
 C          3.1719386734       -3.3254953960        1.3484432750
 C          3.7497994407       -2.0782687474        1.5082354569
 C          3.1260031186       -0.9671086927        0.9549064259
 N          3.6615991617        0.3219423804        1.0955554037
 S          2.6144248205        1.6044643697        1.3580705895
 O          3.4344054988        2.6042157676        2.0145389802
 O          1.4356378779        1.1898735579        2.0856297314
 C          2.1770257407        2.2130545919       -0.2541627211
 C          3.0906083776        2.1390043473       -1.2855800781
 C          2.7449592460        2.6643697739       -2.5197191553
 C          1.5043556202        3.2555897543       -2.6985146471
 C          0.6012711872        3.3266440803       -1.6506745518
 C          0.9400971778        2.8027719898       -0.4145003737
 H          0.2601710499        2.8173630901        0.4238004925
 H         -0.3699671978        3.7726704876       -1.7944643682
 H          1.2339735090        3.6554885074       -3.6631469087
 H          3.4410676586        2.6040050387       -3.3409808377
 H          4.0417982297        1.6626224786       -1.1144860106
 H          4.4833853027        0.3859290665        1.6791353878
 H          4.6696995742       -1.9629808143        2.0608450667
 H          3.6511902589       -4.1926743898        1.7765689850
 H          1.5134753008       -4.4379221712        0.5847754337
 C          0.0306525263       -2.5078114685       -0.6241554980
 H         -0.4878776618       -3.3787528760       -0.1988165468
 C          0.2906140124       -2.7745915466       -2.0949919679
 C          0.5776584242       -4.1704054723       -2.5568401863
 C         -0.7295931323       -3.5219440434       -2.8983228201
 H         -0.9082109597       -3.2125674452       -3.9168386570
 H         -1.6168917364       -3.8619368282       -2.3839306597
 H          0.5700658359       -4.9585026533       -1.8196493612
 H          1.3028904512       -4.3110401194       -3.3432443596
 H          0.8109633259       -1.9623732573       -2.5857385417
 O         -1.9184628248       -2.5156018154        1.3790343970
