  62
        -98.93745982
 C         -1.6455088046       -1.3516121129        0.4788315617
 C         -1.5523809431       -0.2770747673       -0.4406526281
 C         -2.4847978758        0.8421769486       -0.2187562265
 C         -3.3428354411        0.8034302729        0.8152002969
 C         -4.3776618324        1.8468643308        1.1182730920
 C         -5.7141089646        1.5149518122        0.4397647083
 C         -5.5846348724        1.1663165473       -1.0431341926
 H         -5.0299660621        0.2304364806       -1.1429293202
 H         -6.5921487911        0.9835753192       -1.4231414929
 C         -4.9068086586        2.2495535455       -1.8939305501
 H         -5.4795497837        2.3805385353       -2.8145244119
 H         -4.9252068449        3.2026519117       -1.3640703176
 C         -3.4695084049        1.9264244363       -2.3066411678
 H         -3.4326392749        0.9303809059       -2.7551628983
 H         -3.1683739430        2.6423667842       -3.0762254764
 C         -2.4228543189        1.9912904659       -1.1869311490
 H         -2.5078004830        2.9459213895       -0.6633996803
 H         -1.4357654562        1.9427119758       -1.6561316589
 H         -6.1612109226        0.6609377860        0.9538540101
 H         -6.3827907034        2.3696118020        0.5572635224
 H         -4.5278275646        1.8785435870        2.1986829429
 H         -4.0198967883        2.8180360445        0.7820440720
 O         -3.3949955710       -0.2355705924        1.6853952422
 C         -2.5632947579       -1.3288248175        1.5372599412
 O         -2.7312441019       -2.2118977696        2.4020807690
 O         -0.7480242174       -0.2197491014       -1.4057975777
 C         -0.7625307659       -2.5977452855        0.4274464238
 C          0.6864875109       -2.2042791098        0.5689166696
 C          1.2593436971       -2.2393480158        1.8392194401
 C          2.5518628057       -1.7978946521        2.0551511567
 C          3.3035692749       -1.2858766808        1.0119280305
 C          2.7407035109       -1.2383469434       -0.2551394964
 C          1.4564860297       -1.7172933926       -0.4759699448
 H          1.0446181432       -1.6424869117       -1.4669517883
 N          3.4609160912       -0.6542983728       -1.3146824952
 S          4.1387843901        0.8428919570       -0.9926669179
 O          4.1244730578        1.5558460774       -2.2514114704
 O          5.4426311654        0.6551970151       -0.4032050866
 C          3.0691397422        1.6415959582        0.1971235692
 C          3.6359229011        2.1964295970        1.3271684095
 C          2.8177779853        2.8176095119        2.2566673364
 C          1.4487113670        2.8659529815        2.0455852275
 C          0.8945392256        2.3039795670        0.9062798044
 C          1.7082269192        1.6903027319       -0.0326882255
 H          1.2807305322        1.2406531627       -0.9153743942
 H         -0.1718801528        2.3260297610        0.7437276355
 H          0.8073186591        3.3401860392        2.7716765236
 H          3.2477127351        3.2551335036        3.1432245557
 H          4.7034482948        2.1229425917        1.4579415198
 H          2.9356442331       -0.6214280780       -2.1774023288
 H          4.3045580239       -0.9137777906        1.1607466294
 H          2.9740958594       -1.8393303882        3.0474195340
 H          0.6696919630       -2.6052271387        2.6679783793
 H         -1.0219291312       -3.1405272399        1.3482779937
 C         -1.1528557232       -3.5429416223       -0.7045270231
 C         -1.0135835914       -3.2661790699       -2.1708383188
 C         -0.1595792154       -4.3126647143       -1.5224223519
 H         -0.3703145533       -5.3496525203       -1.7377615589
 H          0.8878357406       -4.0994129955       -1.3749110486
 H         -1.8191870708       -3.5920906921       -2.8143472216
 H         -0.5762034068       -2.3331174447       -2.4835939954
 H         -2.0578568638       -4.0807975102       -0.4323595155
