  62
        -98.93507006
 C         -2.5009885138       -1.4325334740        0.2618796904
 C         -2.7293577367       -0.5543023277       -0.8231318924
 C         -3.5616237723        0.6325609543       -0.5459507115
 C         -4.0384941709        0.8422098129        0.6943451899
 C         -4.9283993192        1.9361909588        1.2453349456
 C         -5.0917602059        3.2595827363        0.5012872681
 C         -3.8194963582        4.0987035382        0.3925362313
 H         -4.0436392742        4.9779996519       -0.2154711776
 H         -3.5417260294        4.4461697792        1.3907443909
 C         -2.6061757018        3.3853730062       -0.2002433856
 H         -1.7842557429        4.1053463506       -0.2531376026
 H         -2.2797912322        2.5881134174        0.4720058447
 C         -2.8061312824        2.8059226613       -1.6000137167
 H         -3.1769202664        3.5843254491       -2.2697353328
 H         -1.8227490219        2.4939522025       -1.9638239860
 C         -3.7452056055        1.5885074609       -1.6891387701
 H         -3.4943999235        1.0355213771       -2.5989406725
 H         -4.7853171882        1.8951625256       -1.7682074478
 H         -5.5161272947        3.0906737591       -0.4839491273
 H         -5.8235082252        3.8434174486        1.0661618300
 H         -5.9193965823        1.4849908698        1.3674024450
 H         -4.5539471423        2.1375662439        2.2538002882
 O         -3.7928786219       -0.0340016618        1.7113543426
 C         -3.0204436887       -1.1651937282        1.5308312083
 O         -2.8756301348       -1.8532865954        2.5606680355
 O         -2.2741564551       -0.7302717900       -1.9842895807
 C         -1.6484114973       -2.6892544264        0.1590786190
 C         -0.1991198399       -2.3219189155        0.3494026089
 C          0.5534541405       -2.8535968906        1.3889108598
 C          1.8658333839       -2.4561724744        1.5813015212
 C          2.4510579819       -1.5217678357        0.7455965558
 C          1.7045927765       -0.9817917785       -0.2937848179
 C          0.3944857949       -1.3877889181       -0.4897290395
 H         -0.1843012326       -0.9637190292       -1.2974219592
 N          2.2861202757       -0.0161243609       -1.1423599602
 S          2.7879151319        1.4035388815       -0.3898830076
 O          2.0223006021        1.6644520853        0.8083617656
 O          2.7463953863        2.4219018087       -1.4166235801
 C          4.4854664121        1.0666175311        0.0278425413
 C          4.8964791417        1.1180531173        1.3451702021
 C          6.2220889465        0.8433432898        1.6441394206
 C          7.1075185942        0.5239135859        0.6261566179
 C          6.6791569940        0.4794912138       -0.6924446226
 C          5.3559291421        0.7540867062       -0.9981189424
 H          4.9817037280        0.7344787446       -2.0079846895
 H          7.3707219305        0.2308671309       -1.4811407240
 H          8.1376468091        0.3084378693        0.8619442431
 H          6.5568114983        0.8777909903        2.6684273122
 H          4.1699079859        1.3641816291        2.1030861961
 H          1.6944432237        0.2113433001       -1.9301562891
 H          3.4701096069       -1.2038148972        0.8950715844
 H          2.4381137704       -2.8756568023        2.3945560679
 H          0.0962734330       -3.5656723275        2.0604083010
 H         -1.9506810283       -3.3084099972        1.0176417005
 C         -1.9214687141       -3.4919928240       -1.1066647058
 C         -0.8815524215       -3.7917356470       -2.1413756471
 C         -1.3667644409       -4.8801785259       -1.2354064351
 H         -1.9979731094       -5.6557320005       -1.6417541202
 H         -0.6967619121       -5.2164889692       -0.4583255613
 H         -1.1942998101       -3.7960711716       -3.1745726740
 H          0.1176049403       -3.4140622893       -1.9912832735
 H         -2.9298642052       -3.3379292611       -1.4756799336
