  62
        -98.94055489
 C         -2.3595560260        0.7924664561        0.1479990449
 C         -3.5751798825        1.1075121481       -0.5053648668
 C         -4.7861577286        0.5244644018        0.0821300753
 C         -4.6908766015       -0.2365370675        1.1878006076
 C         -5.8366996303       -0.8835584416        1.9177285073
 C         -6.2691297104       -2.2327823914        1.3272775577
 C         -7.0163440135       -2.1501567435       -0.0043721550
 H         -7.8435282080       -1.4457152609        0.0876789148
 H         -7.4467577916       -3.1358652199       -0.1917700748
 C         -6.1367522585       -1.7607062333       -1.2006864158
 H         -6.3512334618       -2.4237398196       -2.0418832022
 H         -5.0851016879       -1.9035860323       -0.9411281277
 C         -6.3346504527       -0.3268271543       -1.6926676459
 H         -7.3495367638       -0.2082660111       -2.0784871969
 H         -5.6384801332       -0.1475830899       -2.5160442148
 C         -6.0895799829        0.7468719365       -0.6241939679
 H         -6.9122725341        0.7621091158        0.0901020863
 H         -6.0369450351        1.7190699277       -1.1202150445
 H         -6.9241614099       -2.7129879346        2.0578074892
 H         -5.3836802154       -2.8619039975        1.2104438379
 H         -6.6888698678       -0.2038022199        1.9389050096
 H         -5.4973124287       -1.0489712882        2.9424389694
 O         -3.5041969415       -0.4990132549        1.7979458449
 C         -2.3095868714       -0.0145378262        1.2844281156
 O         -1.2994003598       -0.3631162611        1.9246350882
 O         -3.6435829242        1.8371595599       -1.5308045590
 C         -1.0616516127        1.3414223383       -0.4153103155
 C         -0.1417382602        0.2067421900       -0.7922542956
 C         -0.6182380030       -0.7826376969       -1.6499824906
 C          0.1852457869       -1.8415466748       -2.0233240040
 C          1.4860400888       -1.9321136514       -1.5589660166
 C          1.9705794959       -0.9525141263       -0.7012678440
 C          1.1588563177        0.1100768143       -0.3262424114
 H          1.5626734886        0.8548018623        0.3384449648
 N          3.2755641579       -1.0345953328       -0.1900289783
 S          4.1403255523        0.3896456978        0.0736412357
 O          3.7562718916        0.9515728540        1.3437968678
 O          4.0208133763        1.2613840308       -1.0737208021
 C          5.7961618959       -0.2639569495        0.1844079991
 C          6.6315033701       -0.1971221330       -0.9145618610
 C          7.9056395034       -0.7351371505       -0.8216887749
 C          8.3193765306       -1.3297742072        0.3607549560
 C          7.4697432667       -1.3888929757        1.4556990870
 C          6.1952161737       -0.8518053382        1.3701403015
 H          5.5034162653       -0.8662489399        2.1963632081
 H          7.7955250868       -1.8498791165        2.3741805805
 H          9.3112375448       -1.7476258452        0.4307961121
 H          8.5696040797       -0.6880195261       -1.6697594442
 H          6.2692363741        0.2817529809       -1.8099865893
 H          3.8384888382       -1.7318491292       -0.6576643310
 H          2.1159393035       -2.7587182388       -1.8507233651
 H         -0.2000388300       -2.6006304632       -2.6876048246
 H         -1.6327688560       -0.7071953102       -2.0179618934
 H         -1.3440523666        1.8714672292       -1.3377408855
 C         -0.4402413435        2.3352786656        0.5420358549
 C          0.4879543984        3.3930921737        0.0272215657
 C         -0.8830345478        3.7658830523        0.5036233908
 H         -0.9780272504        4.3012258522        1.4363279030
 H         -1.6247023767        4.0355579985       -0.2340310022
 H          1.3416913581        3.6652171018        0.6302325053
 H          0.6834318901        3.4113203886       -1.0346155469
 H         -0.2279878958        1.9033659964        1.5143790961
