  62
        -98.94490027
 C         -2.0478551587       -1.4173747927        0.1081632095
 C         -2.0147303241       -0.5582570721       -1.0167858716
 C         -2.8695455374        0.6365375443       -0.9392730677
 C         -3.6229762500        0.8476451056        0.1544003446
 C         -4.4909555065        2.0500554260        0.3834242526
 C         -3.7220117791        3.1625496468        1.1098707901
 C         -2.3599571027        3.4798255647        0.4922135961
 H         -1.9310274815        4.3039982655        1.0656424507
 H         -1.7007739481        2.6181119620        0.6194914918
 C         -2.4098656760        3.8650256541       -0.9929625888
 H         -3.4253054326        4.1528733434       -1.2676444642
 H         -1.7754784066        4.7398432590       -1.1516861787
 C         -1.9189750277        2.7753572578       -1.9482893620
 H         -0.9449584961        2.4055607438       -1.6180456521
 H         -1.7835190144        3.2242961734       -2.9360494255
 C         -2.8536087506        1.5710462691       -2.1165085797
 H         -3.8630994385        1.9157384217       -2.3492869697
 H         -2.4892156547        0.9821663048       -2.9633305490
 H         -4.3411636696        4.0615063569        1.1143899566
 H         -3.5639271434        2.8534066078        2.1455335158
 H         -4.8595426447        2.4135098778       -0.5739126507
 H         -5.3410601560        1.7477140514        0.9973475468
 O         -3.6420761107       -0.0051751728        1.2092368452
 C         -2.8591433878       -1.1447191241        1.2157466651
 O         -2.9738804685       -1.8347682706        2.2480850637
 H          0.6306097270       -1.5225612033       -1.3886714335
 C          1.0379658655       -1.7846409855       -0.4239492344
 C          0.2168718744       -2.3877654058        0.5182438611
 C          0.7470534299       -2.6852023147        1.7685420458
 C          2.0699766275       -2.4006722782        2.0589110018
 C          2.8889610779       -1.8104643688        1.1128746092
 C          2.3627015290       -1.4903046735       -0.1322454893
 N          3.1743468262       -0.8833176501       -1.1077269205
 S          4.1162220673        0.4327840820       -0.6910344326
 O          4.4963736426        1.0378537121       -1.9466613403
 O          5.1964077828       -0.0049965532        0.1573108257
 C          3.0403175718        1.5280722166        0.2158029094
 C          2.2137328761        2.3730883844       -0.4981305177
 C          1.3522631463        3.2100178905        0.1918922636
 C          1.3192801290        3.1746732009        1.5776362185
 C          2.1521846680        2.3180974057        2.2799924634
 C          3.0253310736        1.4877279321        1.5953795413
 H          3.6996491417        0.8218109947        2.1073738236
 H          2.1256677173        2.2950249621        3.3575874171
 H          0.6424499974        3.8220640872        2.1125569216
 H          0.7085040561        3.8838700081       -0.3501062038
 H          2.2711353156        2.3741708331       -1.5750502671
 H          2.6865390659       -0.7072736964       -1.9743777402
 H          3.9247672977       -1.5945870431        1.3187579763
 H          2.4700331182       -2.6454315616        3.0311622762
 H          0.1101242257       -3.1350017531        2.5165646366
 C         -1.2278570882       -2.6961947028        0.2035477791
 H         -1.6437683746       -3.2469727231        1.0574208233
 C         -1.3549147402       -3.5678703442       -1.0311195254
 C         -1.0165472769       -5.0233917292       -0.9285879909
 C         -2.4434512875       -4.5946865204       -1.0916876894
 H         -2.9328093579       -4.7719866527       -2.0377056094
 H         -3.1018143815       -4.6764029568       -0.2387796904
 H         -0.5230774373       -5.4979241036       -1.7628890504
 H         -0.7075003222       -5.3980602129        0.0355937211
 H         -1.1069868844       -3.0568108397       -1.9517288554
 O         -1.3179778368       -0.7549231019       -2.0490319483
