  62
        -98.93953414
 C         -1.5441948964       -1.4164817978       -0.4024098490
 C         -1.4475888148       -0.0188282531       -0.5905392523
 C         -2.4788970770        0.8178308971        0.0593374959
 C         -3.4704322424        0.2215362970        0.7446474977
 C         -4.6410544719        0.8606554294        1.4432633278
 C         -5.7192331445        1.3576364253        0.4660795517
 C         -5.1868027345        2.0865128284       -0.7648374398
 H         -4.5014904359        1.4282877560       -1.3015978472
 H         -6.0345582285        2.2831117244       -1.4263816126
 C         -4.4949814996        3.4182873841       -0.4842457203
 H         -4.2426570196        3.8632918622       -1.4500275672
 H         -5.1970810403        4.0884350296        0.0169239191
 C         -3.2156654758        3.3438011775        0.3523001403
 H         -2.7134171396        4.3123668283        0.2694224809
 H         -3.4423464364        3.2066223838        1.4063455513
 C         -2.2102663647        2.2937324929       -0.1094113315
 H         -1.2575414166        2.4698833201        0.4084876819
 H         -1.9988657010        2.4455772518       -1.1740641410
 H         -6.2845304902        0.4892220675        0.1192312184
 H         -6.4036972899        2.0097730781        1.0112053139
 H         -4.2950958702        1.6664812043        2.0843285512
 H         -5.0798981416        0.0927604325        2.0844521116
 O         -3.5585009924       -1.1357192640        0.8530793315
 C         -2.5978693955       -1.9736919674        0.3270482744
 O         -2.7950045685       -3.1852220054        0.5557965594
 O         -0.5548263033        0.5433310872       -1.2779419525
 C         -0.5019329616       -2.4120382936       -0.8919275036
 C          0.6011969011       -2.4987439245        0.1375408827
 C          0.8156014972       -3.6746961480        0.8460775480
 C          1.7857062011       -3.7333713282        1.8308366189
 C          2.5446685099       -2.6189393693        2.1346905406
 C          2.3396207757       -1.4357086618        1.4301253005
 C          1.3878481769       -1.3900856973        0.4224570699
 H          1.2218793736       -0.4690087671       -0.1094224161
 N          3.1100757073       -0.3059669259        1.7217915058
 S          2.5968114621        1.2689369700        1.4755061096
 O          3.3671495729        2.0323244821        2.4379020965
 O          1.1631857324        1.3979922486        1.5729611625
 C          3.2102354436        1.6462002427       -0.1524530727
 C          2.3570875527        1.8173901760       -1.2222322692
 C          2.9004390676        2.0965027572       -2.4682172943
 C          4.2734612962        2.2003641677       -2.6215391051
 C          5.1169307027        2.0285008102       -1.5335546529
 C          4.5823386228        1.7492813678       -0.2875547164
 H          5.1989708930        1.6207090793        0.5864572004
 H          6.1851643383        2.1104551489       -1.6542432238
 H          4.6878394191        2.4163237401       -3.5938410718
 H          2.2407264944        2.2263065935       -3.3114530888
 H          1.2916380498        1.7151737090       -1.0836391933
 H          3.7049222925       -0.3884960790        2.5321177457
 H          3.2877341852       -2.6571796262        2.9168217429
 H          1.9418994400       -4.6511575204        2.3774271227
 H          0.1989791232       -4.5367481181        0.6375067633
 H         -1.0110688303       -3.3854042650       -0.9169789980
 C          0.0470109562       -2.1250765827       -2.2741312513
 C          0.6648103594       -3.2473744656       -3.0510674537
 C         -0.6577459725       -2.6822306465       -3.4725745523
 H         -0.7037111077       -2.0805944603       -4.3676948273
 H         -1.5446373818       -3.2750824335       -3.3002828596
 H          1.5314330242       -3.0357374625       -3.6580327516
 H          0.6743145426       -4.2261696428       -2.5956208074
 H          0.4876391699       -1.1425661587       -2.3707898295
