  62
        -98.93830407
 C         -1.8322168417       -1.0565035416       -0.1850400035
 C         -2.3815953517        0.1303875553       -0.7194315458
 C         -3.8491362468        0.2794184434       -0.6321813273
 C         -4.5703515449       -0.7118987385       -0.0761581516
 C         -6.0568077768       -0.7607679249        0.1562151027
 C         -6.4951077020        0.0984458196        1.3543370369
 C         -5.8257887161        1.4676797784        1.4450815191
 H         -6.1215464535        1.9196659862        2.3955731670
 H         -4.7422855129        1.3371903535        1.4723049727
 C         -6.1902505055        2.4458459819        0.3309177365
 H         -7.2685539661        2.6203403850        0.3463302524
 H         -5.6970024930        3.3947245220        0.5570636681
 C         -5.7889326475        2.0270165758       -1.0844730588
 H         -5.9075163865        2.9032245815       -1.7288721499
 H         -6.4619072233        1.2668339539       -1.4718239888
 C         -4.3388402310        1.5754502580       -1.2317921611
 H         -4.1009468762        1.5152098774       -2.3010544311
 H         -3.6782942425        2.3551617186       -0.8352015859
 H         -7.5784463791        0.2222996510        1.3131267976
 H         -6.2525399314       -0.4498252652        2.2678455537
 H         -6.5843287366       -0.4683564219       -0.7467672454
 H         -6.3082743310       -1.8028054382        0.3655170310
 O         -3.9943454078       -1.8454597627        0.4175036107
 C         -2.6294250914       -2.0488402330        0.3827517292
 O         -2.2512081911       -3.1282183717        0.8818820461
 H          1.8059119730        0.2490626522       -1.1138235835
 C          1.4510218982        0.5215054293       -0.1344511887
 C          0.3857955595       -0.1471058152        0.4470224200
 C         -0.0385587688        0.2492200658        1.7137380977
 C          0.5662801202        1.3055818854        2.3647237305
 C          1.6192877946        1.9821855825        1.7734400212
 C          2.0596029701        1.5874579240        0.5170276908
 N          3.1206214659        2.2603290867       -0.1087162740
 S          4.2961767776        1.3885497130       -0.9126208166
 O          5.4393519493        2.2747746443       -0.9525095216
 O          3.8075953520        0.9321586039       -2.1884332819
 C          4.6356456707       -0.0003325456        0.1542199584
 C          4.3455905024       -1.2806284369       -0.2680174168
 C          4.5832093566       -2.3405370492        0.5928695386
 C          5.1014697660       -2.1017104228        1.8558307158
 C          5.3929328953       -0.8087518762        2.2639888944
 C          5.1580200931        0.2539362293        1.4074810227
 H          5.3845559406        1.2697788680        1.6876811602
 H          5.7998707076       -0.6274707090        3.2456986816
 H          5.2814050746       -2.9285565519        2.5246629460
 H          4.3613108328       -3.3470645229        0.2752895694
 H          3.9417527007       -1.4228471539       -1.2568248514
 H          3.5230224170        3.0091640761        0.4353090165
 H          2.0867727656        2.8160115502        2.2746507602
 H          0.2173851933        1.6064835152        3.3410936533
 H         -0.8640185317       -0.2774044077        2.1738125168
 C         -0.3322828817       -1.2878208348       -0.2310209964
 H         -0.1496456534       -2.2039788910        0.3496304238
 C          0.1072466900       -1.5226245179       -1.6609307984
 C          1.2676482097       -2.4215427412       -1.9588577308
 C         -0.1270081293       -2.8683576221       -2.2765581157
 H         -0.4336936461       -2.9165530209       -3.3107091105
 H         -0.5773364996       -3.6259246264       -1.6514385921
 H          1.9220938733       -2.1604945503       -2.7776199241
 H          1.7639630964       -2.8862400454       -1.1204865728
 H         -0.0430876652       -0.6541776333       -2.2926697660
 O         -1.6845727187        1.0394370814       -1.2429287718
