  62
        -98.93677453
 C         -2.4683167909       -0.4561575609       -0.1701295112
 C         -2.0512487336       -1.4874636395       -1.0430278374
 C         -1.3674006453       -2.6269938137       -0.4208484148
 C         -1.1949412500       -2.6389039721        0.9133787680
 C         -0.5154557496       -3.7371240145        1.6798415375
 C          0.9805884021       -3.4597223664        1.8730456026
 C          1.7184905396       -3.0844176914        0.5876097431
 H          1.3780633886       -2.1003369714        0.2566055284
 H          2.7764458838       -2.9810487639        0.8419755937
 C          1.5671029680       -4.0887718579       -0.5626252173
 H          2.5442706234       -4.2298646509       -1.0291017465
 H          1.2478595413       -5.0567089921       -0.1732770324
 C          0.6085012981       -3.6409760129       -1.6681075017
 H          0.7786660799       -4.2720761543       -2.5449205834
 H          0.8413218623       -2.6105649675       -1.9526136580
 C         -0.8853295708       -3.7240677368       -1.3272375779
 H         -1.4481804820       -3.6100908535       -2.2585500366
 H         -1.1140692809       -4.7053732028       -0.9050967221
 H          1.4394421010       -4.3471656144        2.3142130032
 H          1.0898950755       -2.6289479556        2.5739018377
 H         -0.6553299768       -4.6777773794        1.1498737424
 H         -0.9894633458       -3.8087501007        2.6607118567
 O         -1.6217130511       -1.6374958206        1.7233380820
 C         -2.2208300672       -0.4995952936        1.2027933821
 O         -2.4995013297        0.3656615145        2.0526487112
 O         -2.2512099502       -1.4573870579       -2.2900002877
 C         -3.1007961257        0.7958035018       -0.7708332583
 C         -2.2326027903        1.9634368486       -0.3640697667
 C         -2.5899919779        3.1259843237        0.3051314865
 C         -1.6277648161        4.0604022949        0.6576976416
 C         -0.2893453729        3.8540729128        0.3870880696
 C          0.0822228625        2.6992065415       -0.2914517358
 C         -0.8873059883        1.7986890519       -0.6885417724
 H         -0.5774674698        0.9111092055       -1.2220343729
 N          1.4293755031        2.4026485308       -0.5807381095
 S          1.8642174985        0.7849237490       -0.3062253019
 O          1.6055996195        0.0263754035       -1.5046797831
 O          1.2466668866        0.3135037623        0.9113270466
 C          3.6262815017        0.9496891622       -0.0858248954
 C          4.1516576638        0.9768926943        1.1918423749
 C          5.5190220217        1.1405396095        1.3509416383
 C          6.3319914414        1.2774201985        0.2358273603
 C          5.7898836697        1.2472129617       -1.0406734920
 C          4.4240406879        1.0819840468       -1.2067223798
 H          3.9571447659        1.0423517171       -2.1770094163
 H          6.4251969269        1.3505265183       -1.9054012276
 H          7.3953398347        1.4054928522        0.3624969020
 H          5.9429754217        1.1603943860        2.3419580714
 H          3.4797740774        0.8590089165        2.0271709134
 H          2.0692919989        3.0307055531       -0.1118600405
 H          0.4576223000        4.5673560686        0.7010703061
 H         -1.9308327622        4.9544289426        1.1818406650
 H         -3.6089125246        3.3164516177        0.5887967370
 H         -2.9676912218        0.6724111823       -1.8600818052
 C         -4.6015579684        0.7689600047       -0.5340825687
 C         -5.3013788640        1.2769493090        0.6870095702
 C         -5.5174344529        1.9518246551       -0.6360454824
 H         -6.4692100779        1.8042233751       -1.1249287271
 H         -5.0885498238        2.9242100083       -0.8128477056
 H         -6.1035590212        0.6744084231        1.0884356630
 H         -4.7044718715        1.7491245286        1.4496521850
 H         -4.9964534296       -0.1598976365       -0.9415911674
