  62
        -98.94014046
 C         -2.0928773316       -0.4158707129        0.2085393788
 C         -2.7909256884        0.7964167182        0.4449984647
 C         -4.1117665070        0.9262390294       -0.1815927154
 C         -4.5727584694       -0.0777632129       -0.9492778104
 C         -5.9212687841       -0.1066615657       -1.6071077604
 C         -6.9691410160       -0.7644204703       -0.6983605814
 C         -6.9777133881       -0.2196209649        0.7299161146
 H         -7.7752252704       -0.7348209414        1.2696869145
 H         -6.0366872828       -0.4835130061        1.2179685600
 C         -7.1904147397        1.2973718753        0.8296775489
 H         -7.6098295810        1.6751074427       -0.1035015010
 H         -7.9199384947        1.4978610237        1.6172616160
 C         -5.9306390860        2.0930070299        1.1768056159
 H         -5.4555537402        1.6600136465        2.0607688806
 H         -6.2322537076        3.1119211292        1.4341489093
 C         -4.8781121244        2.1950358906        0.0655820167
 H         -5.3485248924        2.5463614175       -0.8552070939
 H         -4.1366418278        2.9369288324        0.3766485046
 H         -7.9533835165       -0.6242043328       -1.1489094899
 H         -6.7650801283       -1.8367507475       -0.6544489655
 H         -6.2225805944        0.9104824166       -1.8502618750
 H         -5.8412412998       -0.6827686632       -2.5304946178
 O         -3.8687374369       -1.2131250144       -1.1759504957
 C         -2.6148749624       -1.4194535031       -0.6091112024
 O         -2.1044068923       -2.5109968087       -0.9161968620
 H          1.2144930762        1.1986390875        1.5053248193
 C          1.3031929785        0.8468818427        0.4864468539
 C          0.3647828300       -0.0445204553       -0.0126056670
 C          0.4855306579       -0.4734882245       -1.3304995328
 C          1.5144123126       -0.0073965220       -2.1288198065
 C          2.4488780268        0.8817238661       -1.6277049300
 C          2.3435936375        1.3072032581       -0.3102460358
 N          3.3229609542        2.1713024407        0.2106984012
 S          4.9164239318        1.6940046405       -0.0125359218
 O          5.6415320923        2.2462922280        1.1096745598
 O          5.3658100777        2.1070366125       -1.3180240448
 C          4.8584566840       -0.0878383561        0.0751586361
 C          5.1533044835       -0.8418559937       -1.0420213280
 C          5.0267229972       -2.2201356304       -0.9728310906
 C          4.6035547562       -2.8165290606        0.2044017816
 C          4.3196513856       -2.0462421839        1.3217557113
 C          4.4458018567       -0.6684476532        1.2585219039
 H          4.2374910969       -0.0407937355        2.1104520484
 H          3.9907476714       -2.5151243332        2.2349973352
 H          4.4917497763       -3.8879756727        0.2536640224
 H          5.2500069960       -2.8224421588       -1.8386950052
 H          5.4727016233       -0.3377533335       -1.9395085054
 H          3.1574729172        2.4489885030        1.1672478698
 H          3.2573909207        1.2543901358       -2.2356067320
 H          1.5925771453       -0.3436946163       -3.1514667781
 H         -0.2315496415       -1.1812819316       -1.7176484083
 C         -0.7384123116       -0.5541653469        0.8791623835
 H         -0.7926177336        0.1197786788        1.7490458146
 C         -0.4587458926       -1.9557187721        1.4067468725
 C          0.6274013257       -2.8382456553        0.8759280829
 C          0.7727241195       -2.2074676873        2.2258761977
 H          0.6917414458       -2.8288340695        3.1047505671
 H          1.4755217692       -1.3932282308        2.3189948505
 H          1.2433833709       -2.4674843879        0.0717464065
 H          0.4207060450       -3.8954008751        0.8139029018
 H         -1.3667986477       -2.4555147134        1.7270996455
 O         -2.3271367448        1.7263929224        1.1596669876
