  62
        -98.93487328
 C         -2.1753089258       -0.7525950150        0.7480750267
 C         -2.5238610005       -0.3979136857       -0.5799440535
 C         -3.3401161078        0.8179907015       -0.7187236597
 C         -3.6453123255        1.5546966213        0.3630336871
 C         -4.4496298603        2.8262208232        0.3754080302
 C         -5.9683367744        2.6039864426        0.3960464024
 C         -6.5711166138        2.1023325740       -0.9168517961
 H         -7.6548424396        2.2020514082       -0.8295408815
 H         -6.2492741407        2.7498129730       -1.7330549702
 C         -6.2350225054        0.6423397638       -1.2514788960
 H         -5.8771350676        0.1358773338       -0.3521850454
 H         -7.1418770215        0.1243159770       -1.5713048028
 C         -5.1984193002        0.4687871487       -2.3615482446
 H         -5.5994837153        0.8547422986       -3.3012234725
 H         -5.0084829980       -0.5997871003       -2.4888477967
 C         -3.8561386261        1.1583390102       -2.0843091718
 H         -3.1259579308        0.7980980210       -2.8130564805
 H         -3.9563084483        2.2378938744       -2.1950099793
 H         -6.2072651083        1.9025102956        1.1987840127
 H         -6.4331773367        3.5614386369        0.6423998815
 H         -4.1669046475        3.3636367547        1.2833519221
 H         -4.1807988747        3.4378022966       -0.4865045019
 O         -3.2201987151        1.2240830301        1.6126590838
 C         -2.4918980340        0.0684870464        1.8328046060
 O         -2.1810331867       -0.1144894061        3.0297556637
 O         -2.1849173926       -1.0420561610       -1.6019689148
 C         -1.3570092989       -1.9996691808        1.0712095950
 C          0.0007277846       -1.8409479774        0.4316733930
 C          0.3821834056       -2.3056820436       -0.8207430589
 C          1.6393512280       -2.0161544924       -1.3253058595
 C          2.5419846346       -1.2535629615       -0.6083116633
 C          2.1670751876       -0.7644614488        0.6358762855
 C          0.9147392265       -1.0677281858        1.1435625246
 H          0.6230033473       -0.6708991292        2.1089290334
 N          3.0692650193        0.0314452239        1.3710674384
 S          3.6189800777        1.4287642153        0.6117456999
 O          3.9785055245        2.3301448505        1.6852714181
 O          2.6571168329        1.9219115950       -0.3478920264
 C          5.1016839935        0.8979085676       -0.2190450908
 C          5.2170784291        1.0467055509       -1.5871551145
 C          6.3822496002        0.6269670668       -2.2103214825
 C          7.4050381538        0.0695802795       -1.4582864096
 C          7.2741611543       -0.0702886776       -0.0844932689
 C          6.1127412504        0.3481492211        0.5448159631
 H          5.9714116013        0.2623092145        1.6092141365
 H          8.0719063179       -0.5035978899        0.4969060787
 H          8.3097226711       -0.2574957589       -1.9460048339
 H          6.4856392499        0.7350952852       -3.2780754199
 H          4.3921522897        1.4793428464       -2.1307097518
 H          2.7319828616        0.2579076719        2.2965185551
 H          3.5179497286       -1.0245714033       -1.0040281846
 H          1.9150424124       -2.3878063374       -2.3005283881
 H         -0.3067227127       -2.8628948520       -1.4289120343
 H         -1.1901811675       -1.9365291735        2.1577664093
 C         -2.1570739875       -3.2801824118        0.8765905214
 C         -2.5555532605       -3.8941734917       -0.4303465001
 C         -1.5527595757       -4.5828108921        0.4448966700
 H         -1.8583547968       -5.4805143775        0.9615549721
 H         -0.5178269167       -4.5811231355        0.1419228433
 H         -3.5500253410       -4.3138713095       -0.4927727643
 H         -2.2416614531       -3.4141608383       -1.3415948485
 H         -2.9129482794       -3.3465446949        1.6565143423
