  62
        -98.93595211
 C         -0.9694717909       -1.3829500916        0.7457761389
 C         -1.6173085805       -1.0275118505       -0.4637060910
 C         -2.4916847604        0.1628803295       -0.4048264102
 C         -2.6464436507        0.8256668985        0.7522929803
 C         -3.4503692107        2.0730448883        1.0217404611
 C         -4.8513765105        2.1598747590        0.3991575408
 C         -5.5796078706        0.8171052392        0.2395425394
 H         -5.0554068308        0.0373620387        0.7945209789
 H         -6.5805236707        0.9044132989        0.6661711492
 C         -5.7302015002        0.3888554405       -1.2225310710
 H         -6.0145057699        1.2612019910       -1.8151346403
 H         -6.5457548502       -0.3347704694       -1.2947867318
 C         -4.4953235801       -0.2581514291       -1.8495938412
 H         -4.3394460603       -1.2529175595       -1.4233794020
 H         -4.6899862998       -0.3952727982       -2.9160628014
 C         -3.1842485500        0.5272609206       -1.6856149401
 H         -2.5049127998        0.2325123413       -2.4911004402
 H         -3.3537181899        1.5993365107       -1.7589645393
 H         -4.7871015502        2.6446720298       -0.5741885388
 H         -5.4408197006        2.8185643285        1.0391728212
 H         -3.5311542410        2.1285647774        2.1099964611
 H         -2.8601096805        2.9349852586        0.6960355420
 O         -2.0193201711        0.4357700175        1.8985191801
 C         -1.1636535912       -0.6525345026        1.9194429694
 O         -0.6489234515       -0.8731034036        3.0335612694
 H          0.9290456397       -0.8419863202       -1.0590422401
 C          1.7123296394       -1.1704857009       -0.3936312902
 C          1.4250662391       -2.0452138417        0.6450648590
 C          2.4607368988       -2.4599425025        1.4748080689
 C          3.7540542289       -2.0177905525        1.2620360897
 C          4.0346041593       -1.1385477916        0.2318878705
 C          3.0049254495       -0.7091599708       -0.5974745594
 N          3.2550614699        0.1950188301       -1.6451055586
 S          2.2595173301        1.5324052203       -1.7972636977
 O          0.9848105502        1.1586208509       -2.3496500784
 O          3.0405872404        2.4701424209       -2.5756445367
 C          2.0726633396        2.1364575389       -0.1302507972
 C          3.1452163695        2.7808294883        0.4554610936
 C          3.0362938792        3.2036453772        1.7697578040
 C          1.8651502390        2.9692749967        2.4748225134
 C          0.7960832491        2.3252154973        1.8718659526
 C          0.8994087894        1.9024103084        0.5558781122
 H          0.0886105395        1.3960746589        0.0542494816
 H         -0.1119492111        2.1326415169        2.4216486221
 H          1.7801653787        3.2903371758        3.5009458137
 H          3.8625778391        3.7096846367        2.2423890946
 H          4.0334689997        2.9539327087       -0.1301740560
 H          4.2241761800        0.4675562101       -1.7310591081
 H          5.0410052093       -0.7847648415        0.0685406611
 H          4.5494464987       -2.3511595231        1.9106129596
 H          2.2428146085       -3.1239485932        2.2981769283
 C          0.0154995390       -2.5332557818        0.8699845282
 H         -0.0508589114       -2.8625125427        1.9198548379
 C         -0.3329268409       -3.7328838610        0.0002367170
 C          0.4037320494       -4.0802706600       -1.2544416331
 C          0.5707412690       -4.9300963511       -0.0328539037
 H          0.1241197889       -5.9127695811       -0.0210847947
 H          1.5096013289       -4.8631538216        0.4953177066
 H          1.2221503896       -3.4446848798       -1.5556379723
 H         -0.1734859103       -4.4590016593       -2.0840211235
 H         -1.4000325609       -3.9304194109       -0.0019063134
 O         -1.4888168203       -1.6480840096       -1.5482344115
