  62
        -98.94466208
 C         -1.7728985301       -1.0693505195       -0.0573910902
 C         -2.9707373599       -1.0990532097        0.7070237301
 C         -4.1607467100       -0.5140617493        0.0824451207
 C         -4.0779994303       -0.0086802587       -1.1612004191
 C         -5.2070041704        0.5945142818       -1.9517167785
 C         -5.4745635002        2.0718505617       -1.6331493877
 C         -6.1296678598        2.3366028311       -0.2769267474
 H         -7.0198743498        1.7148028412       -0.1770595675
 H         -6.4584280597        3.3777732512       -0.2780580569
 C         -5.2048015095        2.1128452004        0.9278289322
 H         -5.3003184492        2.9516966301        1.6210302426
 H         -4.1652811696        2.0948251005        0.5916171719
 C         -5.4910436894        0.8365273901        1.7193194017
 H         -6.4806935993        0.9033480700        2.1766118620
 H         -4.7532049992        0.7593777797        2.5220373414
 C         -5.4230954798       -0.4508878095        0.8876626211
 H         -6.2939309800       -0.5246286291        0.2365303113
 H         -5.4238183197       -1.3021274398        1.5727789507
 H         -6.1348312804        2.4585806221       -2.4129074074
 H         -4.5314046601        2.6198856816       -1.6950378677
 H         -4.9269490607        0.5148363123       -3.0043944986
 H         -6.1170207505        0.0160359718       -1.7896972185
 O         -2.9197265305       -0.0110250985       -1.8686651394
 C         -1.7405596304       -0.5157209189       -1.3371834600
 O         -0.7683373206       -0.4032596186       -2.1125046702
 H          0.6692752199        0.3765248805       -0.6742228802
 C          0.9322045502        0.3403239100        0.3725735797
 C          0.3786887403       -0.6436310603        1.1793877994
 C          0.7311778306       -0.6739004010        2.5233311693
 C          1.6171401509        0.2545768987        3.0431210495
 C          2.1666018608        1.2338879790        2.2349490898
 C          1.8112523504        1.2772920097        0.8935088899
 N          2.3772320003        2.2650256900        0.0537838502
 S          4.0264071102        2.0870158299       -0.1970858203
 O          4.7223711006        2.4437398093        1.0131162296
 O          4.3370953700        2.8748168804       -1.3682384100
 C          4.2333831099        0.3483178701       -0.5341047912
 C          4.5645648801       -0.5094291705        0.4952176683
 C          4.6412881499       -1.8677840304        0.2339794377
 C          4.3833613195       -2.3411653297       -1.0431033925
 C          4.0463956593       -1.4671228192       -2.0650264020
 C          3.9646103595       -0.1083215993       -1.8087580813
 H          3.7087218594        0.6032852211       -2.5778184609
 H          3.8407399190       -1.8383122987       -3.0564077621
 H          4.4493779393       -3.3986909296       -1.2466722130
 H          4.8976418200       -2.5518236808        1.0266485473
 H          4.7608921504       -0.0993608609        1.4721451884
 H          1.9150426601        2.3120881105       -0.8443381196
 H          2.8692564610        1.9573075887        2.6159328299
 H          1.8823282512        0.2162501282        4.0886240294
 H          0.2994037107       -1.4280088212        3.1647838690
 C         -0.5448646200       -1.6837855299        0.5926088992
 H         -0.9377057899       -2.2874975703        1.4216591990
 C          0.2372928896       -2.5943311696       -0.3355463515
 C          1.1000996797       -3.6655630100        0.2571503078
 C         -0.1627950706       -4.0321994895       -0.4616409220
 H         -0.0918750109       -4.5025424590       -1.4307281023
 H         -1.0057240704       -4.3687669797        0.1244284180
 H          1.1149584900       -3.7575231205        1.3322744177
 H          2.0437685995       -3.8826038898       -0.2172597226
 H          0.5931460094       -2.0951154092       -1.2273848113
 O         -3.0410961897       -1.6049795902        1.8582695399
