  62
        -98.94077744
 C          2.5743596712        1.3674605743        0.2443695879
 C          2.7862247484        0.5147935048       -0.8664462277
 C          3.6331932335       -0.6637005929       -0.6201453236
 C          4.1460448929       -0.8721097601        0.6050873710
 C          4.9778912671       -2.0565859365        1.0011999596
 C          4.1045514142       -3.1918407518        1.5529514757
 C          2.9048971322       -3.5362161765        0.6696929196
 H          2.3843162497       -4.3738465983        1.1394279205
 H          2.2070682777       -2.6945964960        0.6653439365
 C          3.2650211762       -3.9056083005       -0.7762166044
 H          4.3208237315       -4.1718502955       -0.8387795613
 H          2.6890262768       -4.7877205336       -1.0639674160
 C          2.9542639188       -2.8177719943       -1.8060392298
 H          1.9211977042       -2.4817560896       -1.6779553478
 H          3.0311224085       -3.2616864661       -2.8023391210
 C          3.8739675349       -1.5899510601       -1.7791325618
 H          3.6710657829       -1.0034694646       -2.6800597607
 H          4.9166778685       -1.9121703298       -1.8060747553
 H          3.7297888815       -2.8955608219        2.5353788665
 H          4.7295241609       -4.0776359972        1.6799250460
 H          5.5405564859       -2.4041095762        0.1369855101
 H          5.6774880489       -1.7400396926        1.7766003100
 O          3.9229244123       -0.0329008683        1.6478770252
 C          3.1278123514        1.0894385203        1.4983589793
 O          2.9974191356        1.7640277218        2.5390427150
 O          2.3039480347        0.7058005070       -2.0141299915
 C          1.7211432194        2.6265321062        0.1788387446
 C          0.2708998711        2.2690638544        0.3789374391
 C         -0.4684874677        2.8044668972        1.4260916606
 C         -1.7862069909        2.4269123444        1.6212874181
 C         -2.3905648318        1.5099565953        0.7799100522
 C         -1.6573395793        0.9651663517       -0.2663463562
 C         -0.3405423729        1.3496316579       -0.4634658804
 H          0.2276869512        0.9232878809       -1.2775395670
 N         -2.2598518802        0.0209852593       -1.1232813295
 S         -2.8273155511       -1.3814273226       -0.3867186361
 O         -2.0862029891       -1.6805777382        0.8180456839
 O         -2.8135050960       -2.3936810997       -1.4200460474
 C         -4.5155834081       -0.9811877650        0.0115052477
 C         -4.9541029785       -1.0498444861        1.3191386684
 C         -6.2731630018       -0.7285815823        1.6005582288
 C         -7.1247280588       -0.3472291435        0.5749960165
 C         -6.6690288357       -0.2862203606       -0.7337696150
 C         -5.3521318507       -0.6065713789       -1.0219235549
 H         -4.9572332540       -0.5750907898       -2.0236533069
 H         -7.3342269922        0.0107584728       -1.5284548691
 H         -8.1497966520       -0.0959898417        0.7972148295
 H         -6.6292576150       -0.7755129890        2.6171640737
 H         -4.2533672878       -1.3447047506        2.0840223986
 H         -1.6704480760       -0.2215953874       -1.9081897562
 H         -3.4147137642        1.2092891035        0.9300421358
 H         -2.3482357098        2.8493361851        2.4401353388
 H          0.0028032475        3.5047305731        2.1002418361
 H          2.0374592977        3.2286900500        1.0444580894
 C          1.9821962855        3.4537281745       -1.0740271533
 C          0.9402825133        3.7555070005       -2.1059352087
 C          1.4079687609        4.8357801755       -1.1811164608
 H          2.0288621311        5.6268071920       -1.5732533200
 H          0.7314107043        5.1495138673       -0.4002807142
 H          1.2552827338        3.7806333878       -3.1381499131
 H         -0.0537094385        3.3613141513       -1.9646925431
 H          2.9935506225        3.3202519211       -1.4435192675
