  62
        -98.93275707
 C          2.1685534003        1.1477453982        0.0631197405
 C          2.0176155409       -0.1382021797       -0.5087415129
 C          2.8867880886       -1.2035787077        0.0325431567
 C          3.7617723720       -0.9231784150        1.0147131231
 C          4.7330106671       -1.8078233980        1.7687263903
 C          5.1390210511       -3.1730211807        1.2181641889
 C          5.9274384132       -3.1319221628       -0.0898648405
 H          6.9042661321       -2.6822415489        0.1047562234
 H          6.0934828438       -4.1604667588       -0.4177310100
 C          5.2776749252       -2.3486269816       -1.2281124699
 H          5.2268852630       -1.2902756051       -0.9642705889
 H          5.9276450864       -2.4304051689       -2.1035330927
 C          3.8843044913       -2.8229456053       -1.6388367978
 H          3.6184258337       -2.3011053330       -2.5621070609
 H          3.9074709674       -3.8928946031       -1.8545637884
 C          2.7632798045       -2.5504692830       -0.6191977033
 H          1.8084201125       -2.5484745247       -1.1536994045
 H          2.7096727816       -3.3337671720        0.1335036722
 H          4.2674672149       -3.8124569147        1.1132212338
 H          5.7804550496       -3.6327474971        1.9750804826
 H          5.6315231279       -1.1996453796        1.9127313354
 H          4.2956347560       -1.9531681199        2.7627278748
 O          3.8611459833        0.3302852637        1.5463513391
 C          3.0863921359        1.3788305868        1.0905658631
 O          3.3116816012        2.4632788946        1.6655626417
 H         -0.6077151319        0.4996204707       -0.1570652618
 C         -0.8470467393        1.4164603812        0.3601329745
 C          0.0575998143        2.4693363928        0.3706863291
 C         -0.2767654054        3.6349706568        1.0504082270
 C         -1.4943978736        3.7492908774        1.6963228815
 C         -2.4027095815        2.7080234908        1.6662245696
 C         -2.0731007181        1.5315756708        0.9998049339
 N         -2.9667627252        0.4517030156        0.9981477155
 S         -2.9910724985       -0.6265411386       -0.3000096294
 O         -2.0247062373       -1.6665455850       -0.0559612466
 O         -2.8891758510        0.0940524090       -1.5478622010
 C         -4.6402428465       -1.2850117234       -0.1188313448
 C         -5.6833366466       -0.6666227855       -0.7827022826
 C         -6.9692808439       -1.1561603543       -0.6171325789
 C         -7.1905302384       -2.2491912912        0.2073589893
 C         -6.1341137068       -2.8607320198        0.8657698701
 C         -4.8456584364       -2.3760436901        0.7038950675
 H         -3.9922849579       -2.8227838474        1.1871761406
 H         -6.3088703595       -3.7125974966        1.5029511080
 H         -8.1919630173       -2.6288232019        0.3347277281
 H         -7.7916025785       -0.6849295950       -1.1309145269
 H         -5.4618800040        0.1729684638       -1.4218789642
 H         -3.8964349935        0.7022715584        1.3047993547
 H         -3.3568394475        2.7962175325        2.1631001691
 H         -1.7413206573        4.6597159434        2.2208954033
 H          0.4320399687        4.4494012037        1.0780924844
 C          1.3726118569        2.3692222656       -0.3660707076
 H          1.9834786770        3.2348329592       -0.0721444814
 C          1.1238869020        2.4491314611       -1.8600929987
 C          0.9431073888        3.7932099993       -2.4962145829
 C          2.1896301717        3.0021216987       -2.7549963130
 H          2.3288421201        2.5520851833       -3.7263520647
 H          3.1079807041        3.3314413360       -2.2903298013
 H          0.2202630946        3.8896029252       -3.2917325357
 H          1.0199322573        4.6634587914       -1.8620426289
 H          0.5284977542        1.6285282851       -2.2396595416
 O          1.2070085612       -0.4171351265       -1.4319156020
