  62
        -98.94453086
 C          1.2689043089        1.7678734010       -0.6971808306
 C          2.4601481850        1.6451615272        0.0648000471
 C          3.3893710347        0.5865580053       -0.3382410063
 C          3.1049969689       -0.1725898435       -1.4113083953
 C          3.9286800912       -1.3180561122       -1.9318486241
 C          3.6317843177       -2.6430093303       -1.2153497092
 C          4.1966109831       -2.7515339268        0.2017491475
 H          4.1247244561       -3.8010876890        0.4943362746
 H          5.2544833975       -2.4849112645        0.1943308464
 C          3.4540757283       -1.9015138853        1.2426999274
 H          2.4705388533       -1.6264152374        0.8516221874
 H          3.2757180230       -2.5009531366        2.1390669151
 C          4.1990669756       -0.6406595897        1.6844704577
 H          5.1130000981       -0.9242434828        2.2119065398
 H          3.5595863808       -0.0961843189        2.3843294888
 C          4.5705699754        0.3148332190        0.5427040333
 H          4.8861509863        1.2649978369        0.9808750094
 H          5.3955333713       -0.0951821738       -0.0393745252
 H          4.0590575586       -3.4474822924       -1.8190093667
 H          2.5482974632       -2.7876608018       -1.1816677878
 H          4.9901466726       -1.0832731030       -1.8484330929
 H          3.6767996985       -1.4321452794       -2.9884367039
 O          1.9982986441        0.0287234214       -2.1676125264
 C          1.0164918437        0.9429244047       -1.7937473969
 O          0.0161911390        0.9152746023       -2.5343395312
 O          2.7232569835        2.3861210958        1.0505501979
 C          0.2342031807        2.7324928701       -0.1430791793
 C         -0.4616111572        2.0810026150        1.0298325197
 C         -0.8122770122        2.7993385801        2.1665205329
 C         -1.4255757441        2.1637949783        3.2325876477
 C         -1.6844259585        0.8054950372        3.1952713549
 C         -1.3207442468        0.0736609038        2.0686427301
 C         -0.7364109639        0.7223926316        0.9921776685
 H         -0.4472094069        0.1479301729        0.1283076037
 N         -1.5024506196       -1.3095883650        2.0242410174
 S         -1.4645894140       -2.2330625807        0.6385774692
 O         -1.8044360047       -3.5589814942        1.1104187235
 O         -0.1938787076       -2.1069000805       -0.0290713013
 C         -2.8078664135       -1.6225022534       -0.3625412349
 C         -2.5829088908       -0.8789467711       -1.5018654289
 C         -3.6752021697       -0.4231059158       -2.2260692145
 C         -4.9620156603       -0.7108613466       -1.8022561913
 C         -5.1712832033       -1.4620134396       -0.6546436544
 C         -4.0865462632       -1.9220985742        0.0714709917
 H         -4.2046839270       -2.5253137170        0.9568469415
 H         -6.1729379570       -1.6892757940       -0.3271889727
 H         -5.8049010248       -0.3502633479       -2.3704084243
 H         -3.5009362434        0.1591906054       -3.1165826130
 H         -1.5772071095       -0.6497365033       -1.8191864663
 H         -2.0277963022       -1.7243641047        2.7768112362
 H         -2.1420002584        0.3085997831        4.0366158088
 H         -1.6940581841        2.7308837153        4.1109380767
 H         -0.5785537154        3.8520786668        2.2245223089
 H          0.8082920694        3.5861564223        0.2530483745
 C         -0.7407261204        3.2726048695       -1.1764832894
 C         -2.1495475586        2.7824260897       -1.2963260477
 C         -1.8808708621        4.1557502282       -0.7631751020
 H         -2.1194486727        5.0064982723       -1.3831299529
 H         -2.0344876698        4.3193867172        0.2920371809
 H         -2.5585936387        2.6764384274       -2.2886039061
 H         -2.4806323931        2.0192480704       -0.6082660036
 H         -0.2416226130        3.5266662979       -2.1053221851
