  62
        -98.94751997
 C          0.8163424952        1.1443600760        0.6005026778
 C          1.3030095812        0.7978089172       -0.6829627315
 C          2.2177412820       -0.3495227543       -0.7250331184
 C          2.5021157134       -1.0204215730        0.4054270438
 C          3.4524536853       -2.1802914402        0.5282092973
 C          4.9212615155       -1.7585346915        0.6786845191
 C          5.5789608541       -1.2300561148       -0.5969409419
 H          6.6534717258       -1.1860952916       -0.4079922639
 H          5.4202974491       -1.9413379942       -1.4079747554
 C          5.0990050643        0.1620617437       -1.0306394034
 H          4.6050595121        0.6562742154       -0.1907147205
 H          5.9616009009        0.7762400935       -1.2994291180
 C          4.1518877842        0.1628188651       -2.2308894941
 H          4.6780182440       -0.2088471108       -3.1129575775
 H          3.8520436897        1.1951494170       -2.4279138497
 C          2.8780842524       -0.6697915918       -2.0317979274
 H          2.1750113421       -0.4156473715       -2.8284830500
 H          3.1094832762       -1.7323865612       -2.0923022418
 H          4.9912677576       -1.0035231710        1.4651555665
 H          5.4802386081       -2.6362822791        1.0112761013
 H          3.1605004927       -2.7325564367        1.4231273265
 H          3.3536063952       -2.8323812014       -0.3388551521
 O          1.9398878816       -0.7090912084        1.6043704491
 C          1.1048892629        0.3885540070        1.7353946687
 O          0.6861853208        0.5813713636        2.8962624028
 H         -1.5958311366        0.2410235488        0.4233965608
 C         -1.9551565630        1.0670360814       -0.1732921172
 C         -1.2736332313        2.2764308954       -0.1296142097
 C         -1.7526428790        3.3374041715       -0.8869699162
 C         -2.8776747382        3.1783295250       -1.6774047198
 C         -3.5504634753        1.9715382175       -1.7211713777
 C         -3.0827345921        0.9051177716       -0.9604808179
 N         -3.7181231862       -0.3419003797       -1.0061264647
 S         -3.6474655488       -1.4018242912        0.2765514403
 O         -4.6787590702       -2.3763357209       -0.0133853360
 O         -3.7682809775       -0.7231095502        1.5462179081
 C         -2.0618720188       -2.1964699889        0.1330474934
 C         -1.3398233919       -2.4677755521        1.2778627116
 C         -0.1447113893       -3.1598828259        1.1692077736
 C          0.3059601797       -3.5635646190       -0.0775003600
 C         -0.4227107002       -3.2697563660       -1.2194863077
 C         -1.6220668953       -2.5845617562       -1.1166644965
 H         -2.2176566763       -2.3452217854       -1.9818083143
 H         -0.0620568023       -3.5764824538       -2.1879634590
 H          1.2293351277       -4.1142031585       -0.1567915683
 H          0.4275246454       -3.3740804827        2.0578540343
 H         -1.7171504479       -2.1231155449        2.2284293708
 H         -4.5913640446       -0.3782996269       -1.5096526097
 H         -4.4261692826        1.8491358997       -2.3399126555
 H         -3.2375192166        4.0081025900       -2.2667237978
 H         -1.2433859386        4.2867900468       -0.8639589372
 C         -0.0613716355        2.3711562757        0.7636887912
 H         -0.4102994099        2.3627908694        1.8075296122
 C          0.7618471937        3.6226802517        0.5329862222
 C          0.4322427090        4.8929298036        1.2559122200
 C          1.6543481769        4.1117143602        1.6323205389
 H          2.6237929985        4.5101662678        1.3730271370
 H          1.6441548531        3.5575600878        2.5600951222
 H          0.5659515023        5.8314753885        0.7392976799
 H         -0.4061346709        4.8782688519        1.9360788322
 H          1.1356360965        3.6913858318       -0.4823541405
 O          1.0033454355        1.4204211540       -1.7340453339
