  62
        -98.93756710
 C         -2.2537635809       -0.7727437394        0.0661988498
 C         -3.5710171111       -1.2016387990        0.3729303999
 C         -4.6582908809       -0.4993519985       -0.3166760900
 C         -4.3683903205        0.4920735815       -1.1782470799
 C         -5.3620482603        1.2838517919       -1.9844399997
 C         -5.9842135498        2.4633572321       -1.2245184495
 C         -6.9952051799        2.0794416023       -0.1433045495
 H         -7.5086931095        2.9957321125        0.1545324906
 H         -7.7436189002        1.4102597426       -0.5687465695
 C         -6.3742897601        1.4344975120        1.1036925304
 H         -5.3008100000        1.6370446416        1.1216726803
 H         -6.8006032498        1.8903572120        2.0001264005
 C         -6.5953576406       -0.0741472980        1.2142807902
 H         -7.6615522107       -0.2809265076        1.3296528903
 H         -6.0838800807       -0.4308422183        2.1118693501
 C         -6.0689201110       -0.8795312580        0.0191187701
 H         -6.0723686113       -1.9379909481        0.2905842500
 H         -6.7168463410       -0.7373473177       -0.8455172199
 H         -5.1800863396        3.0540701817       -0.7795513695
 H         -6.4912821096        3.0926692024       -1.9595790794
 H         -4.8186465702        1.6773989418       -2.8462095497
 H         -6.1516469406        0.6229787123       -2.3432662997
 O         -3.0934107304        0.8885229511       -1.4320708999
 C         -2.0066285306        0.2910863306       -0.8024648000
 O         -0.9118554304        0.8019707802       -1.1055992201
 O         -3.8246326113       -2.1276978390        1.1880149798
 C         -1.1072209211       -1.4803867999        0.7649541197
 C         -0.1128365207       -0.4791011704        1.2965554397
 C         -0.5464368103        0.4596294597        2.2294813599
 C          0.3203421600        1.4125766393        2.7264185299
 C          1.6396083800        1.4441422589        2.3109559298
 C          2.0880770296        0.5007849088        1.3937573297
 C          1.2132987692       -0.4543780008        0.8952541797
 H          1.5770585389       -1.1547477008        0.1635158895
 N          3.4410565696        0.4861423684        1.0122894196
 S          3.9434233293       -0.1132416916       -0.4794443705
 O          3.3399636595        0.6197670487       -1.5694440704
 O          3.7716450088       -1.5444344716       -0.4913794006
 C          5.6822795994        0.2728997677       -0.3728586606
 C          6.4818002592       -0.5095827727        0.4391070593
 C          7.8292675393       -0.2051678632        0.5466881892
 C          8.3531249697        0.8699459367       -0.1561053207
 C          7.5395478899        1.6443812671       -0.9690698405
 C          6.1902095398        1.3462325976       -1.0793082705
 H          5.5201964699        1.9152031579       -1.7039152204
 H          7.9497068702        2.4774170270       -1.5169283404
 H          9.4025634097        1.1041379063       -0.0718898507
 H          8.4656591691       -0.8062729235        1.1758641191
 H          6.0326842089       -1.3399738626        0.9581894992
 H          3.9120467799        1.3557653182        1.2221824997
 H          2.3158666203        2.1939559086        2.6925551799
 H         -0.0334982796        2.1424584494        3.4392309400
 H         -1.5808023003        0.4407824400        2.5463669099
 H         -1.5798769113       -1.9793682199        1.6284581697
 C         -0.4612043716       -2.5783416801       -0.0667024905
 C         -1.2258973119       -3.3082538297       -1.1287584805
 C         -0.1092216316       -2.3855445700       -1.5102675905
 H          0.8176598982       -2.8091219303       -1.8706511306
 H         -0.3504332713       -1.4351667399       -1.9612148704
 H         -1.0729318523       -4.3720461397       -1.2307705507
 H         -2.2392552218       -2.9898810793       -1.3260587204
 H          0.2309190882       -3.1757770704        0.5198756594
