  62
        -98.94343811
 C          1.9567098511        0.8595177466        0.0420756148
 C          2.2375640476       -0.1092466366        1.0329290724
 C          2.5136955602       -1.4665335171        0.5470103135
 C          2.4442231609       -1.7179023179       -0.7731899520
 C          2.7414073945       -3.0445037788       -1.4093368943
 C          4.2213443744       -3.1555398605       -1.8024188290
 C          5.1880426861       -2.7655573190       -0.6843396951
 H          5.0724395775       -1.7007520369       -0.4698578742
 H          6.2012490999       -2.9097090813       -1.0652970424
 C          5.0114156186       -3.5647626804        0.6142175821
 H          5.9962228295       -3.8653937289        0.9776755806
 H          4.4465927850       -4.4759951730        0.4147082146
 C          4.3365513321       -2.7905291495        1.7479809606
 H          4.8429530586       -1.8325487821        1.8903012295
 H          4.4556307600       -3.3643158248        2.6708871608
 C          2.8370815784       -2.5186900856        1.5704044119
 H          2.4508257831       -2.1381897432        2.5210172897
 H          2.3157595123       -3.4507176396        1.3407781691
 H          4.4016399959       -2.4982220823       -2.6559848555
 H          4.4185391041       -4.1824096093       -2.1153335744
 H          2.1254366836       -3.1386437684       -2.3052431066
 H          2.4759036667       -3.8395768120       -0.7151492684
 O          2.1408939805       -0.7684561401       -1.6943901958
 C          1.8861393868        0.5400769257       -1.3136772684
 O          1.6205056767        1.3078973056       -2.2585107941
 O          2.2574169710        0.1512660673        2.2685282270
 C          1.6452118228        2.2804463696        0.4683933535
 C          0.2563197103        2.6823324319        0.0325215720
 C         -0.0683093414        3.9818915716       -0.3367652395
 C         -1.3644128039        4.3027270334       -0.7020375752
 C         -2.3584559787        3.3427121934       -0.7099337333
 C         -2.0427164840        2.0367038600       -0.3476073929
 C         -0.7492639933        1.7242686064        0.0349993708
 H         -0.5197178063        0.7102317101        0.3297621514
 N         -3.0199809940        1.0300404678       -0.4025337725
 S         -2.8164973259       -0.4231803351        0.4168922603
 O         -2.5758648307       -0.1852202849        1.8239536650
 O         -1.8373022748       -1.2230355610       -0.2771506749
 C         -4.4393842261       -1.1248467001        0.1868319414
 C         -5.3632038004       -1.0628915175        1.2127492500
 C         -6.6299013712       -1.5872682599        1.0071263515
 C         -6.9502619823       -2.1591221128       -0.2148115274
 C         -6.0120080499       -2.2151754059       -1.2350895365
 C         -4.7437132816       -1.6937056903       -1.0356414004
 H         -3.9785418151       -1.7216087208       -1.7941527821
 H         -6.2631601866       -2.6626889183       -2.1831730785
 H         -7.9364477679       -2.5661411271       -0.3727073056
 H         -7.3599574999       -1.5479469599        1.7993326088
 H         -5.0653583576       -0.6160378199        2.1475932101
 H         -3.9666782259        1.3779940093       -0.3471108105
 H         -3.3662256740        3.5928076394       -1.0032481629
 H         -1.6031466122        5.3164873913       -0.9857331061
 H          0.6947840233        4.7429925236       -0.3397972112
 H          1.6622267220        2.2655370180        1.5698025804
 C          2.7211711689        3.2284996679       -0.0230731799
 C          3.1207882919        4.4199125763        0.7938329266
 C          4.0436923345        3.2451866357        0.6815468788
 H          4.9421380199        3.3446929478        0.0912818663
 H          4.1533692723        2.5959828495        1.5383155285
 H          3.3894921528        5.3303585727        0.2795767984
 H          2.6144113353        4.5742651326        1.7347726741
 H          2.7278088780        3.3190241287       -1.1035897949
