  62
        -98.94498166
 C          2.0672006713        1.3344363748        0.0201071367
 C          2.6680403489        0.6794507995        1.1213026582
 C          3.8391088265       -0.1483004260        0.8132241024
 C          4.2733041917       -0.2434280313       -0.4569770884
 C          5.4663224001       -1.0308679136       -0.9269642645
 C          5.1733315647       -2.5160480643       -1.1805993454
 C          4.9669787521       -3.3621845900        0.0764312893
 H          4.9850957425       -4.4084614713       -0.2350599368
 H          5.8054471370       -3.2105703515        0.7568948149
 C          3.6479519940       -3.0904349292        0.8134764479
 H          2.9620375390       -2.5609961460        0.1473122948
 H          3.1723135652       -4.0397163328        1.0712014260
 C          3.7994873835       -2.2920762212        2.1086484735
 H          2.8040581031       -2.1299792971        2.5305382361
 H          4.3787067415       -2.8724291354        2.8301585236
 C          4.4688727071       -0.9226022135        1.9318149565
 H          5.5369942874       -1.0464377185        1.7556375195
 H          4.3290647255       -0.3513744853        2.8527999822
 H          4.2917012590       -2.5941006206       -1.8213294025
 H          6.0220151301       -2.9262064606       -1.7328406303
 H          6.2765393838       -0.9369597189       -0.2034045843
 H          5.7856145675       -0.5782673646       -1.8681488914
 O          3.6656643833        0.3992382542       -1.4889468377
 C          2.5366289060        1.1812557555       -1.2847906735
 O          2.0625051878        1.6762473688       -2.3238789740
 O          2.2423709026        0.7780008804        2.3042161228
 C          0.8400934074        2.1958158929        0.2602842766
 C         -0.3471984180        1.5981852458       -0.4542799939
 C         -1.1765937453        2.3152177028       -1.3054029277
 C         -2.2353294199        1.6900156208       -1.9428872367
 C         -2.4973984304        0.3486095405       -1.7378929519
 C         -1.6883756600       -0.3726018906       -0.8675224160
 C         -0.6295653682        0.2552447442       -0.2307090010
 H          0.0032751551       -0.3094233908        0.4430061874
 N         -1.9560477436       -1.7309938124       -0.6340306773
 S         -3.5472445191       -2.2074676607       -0.4377451859
 O         -3.4862889918       -3.3906282920        0.3918159574
 O         -4.1664978564       -2.3778550372       -1.7286615332
 C         -4.3405780340       -0.8697434200        0.4373255480
 C         -3.8282005709       -0.4966197917        1.6641608221
 C         -4.4176548693        0.5565379368        2.3441421105
 C         -5.5046264289        1.2149400365        1.7892669855
 C         -6.0111175810        0.8244078874        0.5596293745
 C         -5.4239194475       -0.2269414330       -0.1260844841
 H         -5.7827104019       -0.5611128095       -1.0859834719
 H         -6.8578530888        1.3362310186        0.1315899568
 H         -5.9586197115        2.0366031234        2.3203142751
 H         -4.0245631654        0.8609014458        3.3009655742
 H         -2.9844956389       -1.0302587042        2.0721903152
 H         -1.3507428410       -2.1618670858        0.0484516157
 H         -3.3037837887       -0.1552678348       -2.2454868559
 H         -2.8627614063        2.2557430640       -2.6143457111
 H         -0.9873337788        3.3607907333       -1.4822751468
 H          0.6515642860        2.1349709000        1.3425141420
 C          1.1152093863        3.6384896852       -0.1045220898
 C          0.3597041333        4.7420981538        0.5716893688
 C          1.8055814565        4.5171405140        0.8938751279
 H          2.5334730711        5.2299690045        0.5364307782
 H          2.0572379931        4.0805499159        1.8494881987
 H          0.0948732258        5.6148685025       -0.0056043989
 H         -0.3732507019        4.4637447209        1.3134404899
 H          1.3835300814        3.7617223259       -1.1475004064
