  62
        -98.93743817
 C         -2.4557711683       -1.1455059701        0.0024231269
 C         -3.4387807269       -0.7028818543        0.9255338850
 C         -4.4536120202        0.2394371617        0.4259376898
 C         -4.4061914418        0.6201078307       -0.8620895293
 C         -5.3018222201        1.6014217005       -1.5664008847
 C         -4.6958550369        3.0148276087       -1.5311930155
 C         -5.0540691370        3.8388376251       -0.2950855287
 H         -4.4657351364        4.7583802087       -0.3360854905
 H         -6.1076418298        4.1214939452       -0.3456886676
 C         -4.7960425186        3.1497961516        1.0473825276
 H         -3.8316300234        2.6390783424        1.0196214993
 H         -4.7289745017        3.9243839828        1.8137397398
 C         -5.9012262079        2.1577133654        1.4390311666
 H         -6.7600683207        2.3025361583        0.7840355002
 H         -6.2440529897        2.3792960422        2.4518342691
 C         -5.4858731342        0.6799011316        1.4279163060
 H         -5.0582396116        0.4148932464        2.3999344229
 H         -6.3793868728        0.0591040484        1.3020007851
 H         -3.6097736243        2.9157851193       -1.6059813147
 H         -5.0349109162        3.5628004666       -2.4127150781
 H         -5.3622232705        1.2745483543       -2.6066283692
 H         -6.2994764512        1.5899953936       -1.1378010627
 O         -3.4501835288        0.1694246908       -1.7180232858
 C         -2.4578557464       -0.7106214283       -1.3223125607
 O         -1.6691872596       -1.0088967189       -2.2433268933
 O         -3.4674430204       -1.0846693889        2.1261681260
 C         -1.4229687001       -2.1276161616        0.5297350721
 C         -0.1025152345       -1.4568128812        0.8269572256
 C          0.3951355102       -1.4118869327        2.1240687607
 C          1.6167171306       -0.8184368094        2.3904228230
 C          2.3642305404       -0.2553628562        1.3718099811
 C          1.8747856105       -0.2922261334        0.0726420753
 C          0.6532200959       -0.8945348484       -0.1922119160
 H          0.2753638960       -0.9153946671       -1.2039145695
 N          2.6167735228        0.2970572148       -0.9680412537
 S          4.2072337398       -0.2066719774       -1.1702317239
 O          4.5188031523        0.0551137422       -2.5583101617
 O          4.3925077752       -1.5652490800       -0.7143332267
 C          5.1446230072        0.9097225316       -0.1471425144
 C          5.9469900863        0.4110479395        0.8604453813
 C          6.6746492117        1.2980821667        1.6385931185
 C          6.5879227895        2.6604736410        1.3963071991
 C          5.7796923778        3.1450227693        0.3785215631
 C          5.0510399201        2.2635543343       -0.4039560880
 H          4.4162403635        2.5979452576       -1.2075389801
 H          5.7151234257        4.2050480587        0.1925477810
 H          7.1539576588        3.3490209929        2.0036331929
 H          7.3044964124        0.9232849868        2.4293066899
 H          5.9789589849       -0.6557481610        1.0145313117
 H          2.1310371145        0.2840992605       -1.8540114784
 H          3.3149149880        0.2108929005        1.5728626902
 H          1.9901860220       -0.7917140972        3.4026687183
 H         -0.1883269582       -1.8387749325        2.9268192055
 H         -1.8347610124       -2.4860120760        1.4827097964
 C         -1.2198354606       -3.3235386092       -0.3811105683
 C         -0.6502148048       -4.5848339352        0.1923604667
 C         -2.0915917710       -4.5301949926       -0.2149501665
 H         -2.4013363635       -5.0668739919       -1.0991402193
 H         -2.8404748763       -4.5017549468        0.5631197613
 H          0.0355791685       -5.1599841412       -0.4107799101
 H         -0.4216420511       -4.5952888685        1.2472965807
 H         -0.9322499585       -3.0548866410       -1.3895143004
