  62
        -98.94394673
 C          2.1330076856        1.2513948696       -0.1588432414
 C          2.5519657640        0.1680746208       -0.9680955670
 C          3.9558417891       -0.2409224967       -0.8107601861
 C          4.7458750112        0.4235177895        0.0520371423
 C          6.1751046722        0.0761645933        0.3498914361
 C          6.2737581825       -0.8983027867        1.5320023511
 C          5.3420499351       -2.1049626693        1.4175322701
 H          5.5198621237       -2.7371097762        2.2902518049
 H          4.3056332354       -1.7639088537        1.4745805152
 C          5.5312386385       -2.9338751915        0.1394291744
 H          6.4998377158       -2.7086339209       -0.3085013077
 H          5.5361845823       -3.9927818175        0.4064946060
 C          4.4324541450       -2.7446427117       -0.9081960060
 H          3.4529512939       -2.8793407975       -0.4416559934
 H          4.5446580033       -3.5274844998       -1.6632130947
 C          4.4350075165       -1.3975579292       -1.6418838769
 H          5.4307180163       -1.1989972174       -2.0437084996
 H          3.7350357353       -1.4751586023       -2.4790668128
 H          7.3070557049       -1.2407863999        1.6119041858
 H          6.0228915022       -0.3582371512        2.4478619971
 H          6.6296464317       -0.3631539338       -0.5358687430
 H          6.7070377331        0.9948674281        0.6027881779
 O          4.3112384215        1.4705742188        0.7985605536
 C          2.9965097444        1.8985035339        0.7262751704
 O          2.7218751785        2.8495034152        1.4853433000
 H         -1.2079219324        0.3298468932       -1.6410242865
 C         -1.1277830396        0.0131047916       -0.6134299162
 C         -0.2178235616        0.6265332963        0.2317676621
 C         -0.1330541254        0.1869648773        1.5506277894
 C         -0.9297593642       -0.8458704565        2.0057520557
 C         -1.8280903852       -1.4660874458        1.1543599402
 C         -1.9208594359       -1.0348228334       -0.1613697466
 N         -2.8338598977       -1.6589916195       -1.0304616657
 S         -4.4196675577       -1.8038856923       -0.5161172780
 O         -4.5224249265       -2.8719890909        0.4459512538
 O         -5.1998970082       -1.9576490227       -1.7231344382
 C         -4.7745816669       -0.2403342089        0.2648805488
 C         -4.8394279097       -0.1537831147        1.6403987140
 C         -5.0454192017        1.0863418261        2.2238331384
 C         -5.1784150256        2.2119968601        1.4261187372
 C         -5.1150892204        2.1078342410        0.0447433823
 C         -4.9069764278        0.8713947395       -0.5436692929
 H         -4.8593382932        0.7504901563       -1.6139634553
 H         -5.2219753052        2.9848576744       -0.5732653572
 H         -5.3343949241        3.1766620248        1.8828372451
 H         -5.0973340610        1.1705671534        3.2974068346
 H         -4.7343455046       -1.0530124790        2.2245773616
 H         -2.7906238581       -1.3149978724       -1.9784578101
 H         -2.4503872616       -2.2812188670        1.4863612851
 H         -0.8493071343       -1.1760547714        3.0304043038
 H          0.5754108662        0.6669349115        2.2124296900
 C          0.6955832570        1.7419400580       -0.2141977901
 H          0.6262203815        2.5518390335        0.5250770484
 C          0.3663019728        2.3024076039       -1.5813035750
 C         -0.7979690170        3.2326964023       -1.7391832031
 C          0.6016762275        3.7578101707       -1.8454403140
 H          0.9719417097        4.0513260003       -2.8163350588
 H          0.9902256712        4.3544114807       -1.0329861250
 H         -1.3635250292        3.4753432315       -0.8524095321
 H         -1.3908602892        3.1716448540       -2.6392252030
 H          0.5842591361        1.6106782965       -2.3864718800
 O          1.8002476407       -0.4274570149       -1.7835753048
