  62
        -98.94299339
 C         -2.0011131649       -1.4720907355       -0.0276493284
 C         -1.6931698011       -0.1639753933       -0.4729625092
 C         -2.8453332350        0.7044739300       -0.7506771031
 C         -4.0955744646        0.2379232957       -0.5872964012
 C         -5.3668973194        0.9987116979       -0.8489202463
 C         -5.8076564219        1.8947708038        0.3169933523
 C         -4.9606094826        3.1499949130        0.5320709357
 H         -4.8751776186        3.6945693445       -0.4087466822
 H         -5.5074891278        3.7883588405        1.2288975154
 C         -3.5615663792        2.8805417855        1.1040315460
 H         -3.5312706398        1.8760473282        1.5324439031
 H         -3.3600796193        3.5805922228        1.9178775131
 C         -2.4234220535        3.0210929394        0.0929098407
 H         -1.4883571588        2.7582698106        0.5945351680
 H         -2.3531066185        4.0601151436       -0.2367111132
 C         -2.5672417884        2.1240634987       -1.1432875353
 H         -3.3554585006        2.5017763375       -1.7940851101
 H         -1.6227017949        2.1377706626       -1.6930031781
 H         -5.8141289226        1.2981643722        1.2322639435
 H         -6.8355915795        2.2059183002        0.1169168704
 H         -6.1457316580        0.2531192028       -1.0232592923
 H         -5.2550606493        1.6010115881       -1.7510045907
 O         -4.3514677694       -1.0282828063       -0.1615569565
 C         -3.3194369303       -1.8969832279        0.1570370624
 O         -3.6989682597       -3.0026646851        0.5917356663
 O         -0.5255649705        0.2724825167       -0.6337477650
 C         -0.9086285270       -2.4636813339        0.3329144555
 C          0.1637863709       -1.7777634626        1.1448730697
 C         -0.1928552939       -1.2070467025        2.3648578993
 C          0.7468310938       -0.5684277176        3.1493789044
 C          2.0652010452       -0.4882543975        2.7355078932
 C          2.4342489405       -1.0588166597        1.5236044870
 C          1.4865198833       -1.7035578768        0.7380641371
 H          1.7966018507       -2.1129550503       -0.2082987435
 N          3.7765286729       -1.0283405377        1.1052592995
 S          4.2290885616       -0.4899661619       -0.4124147224
 O          3.5546004968       -1.2523411601       -1.4299427345
 O          5.6741684094       -0.5746318072       -0.4054764125
 C          3.7484232577        1.2278159157       -0.4675107005
 C          4.7321915501        2.1900216825       -0.3387373259
 C          4.3700587263        3.5269006029       -0.3364638587
 C          3.0334613629        3.8782084062       -0.4533963169
 C          2.0598551307        2.8995627304       -0.5761642552
 C          2.4133737199        1.5584988900       -0.5843726000
 H          1.6626366011        0.7901799743       -0.6771319008
 H          1.0172782508        3.1616695119       -0.6642528955
 H          2.7485425374        4.9186572560       -0.4492454719
 H          5.1276425380        4.2882882813       -0.2421266474
 H          5.7579512293        1.8696559500       -0.2519563945
 H          4.4081428666       -0.6434717133        1.7935923550
 H          2.8026396657        0.0097187498        3.3468977315
 H          0.4523649158       -0.1265061579        4.0894333440
 H         -1.2246894584       -1.2672482764        2.6853674499
 H         -1.3992393258       -3.2052133912        0.9858744500
 C         -0.3532878385       -3.2335587418       -0.8557891322
 C         -1.1995837243       -3.5304270280       -2.0567450001
 C         -0.0514079371       -2.5748587955       -2.1665582852
 H          0.8353373274       -2.8817993834       -2.7023632322
 H         -0.2641591791       -1.5216796297       -2.2574657686
 H         -1.1098315264       -4.5023181740       -2.5183297299
 H         -2.2030865685       -3.1300154161       -2.0751436338
 H          0.3242285738       -4.0232971617       -0.5439595387
