  62
        -98.94534367
 C          2.4099089398        0.1413805385       -0.0706842406
 C          1.4888073601        0.5914439289        0.9030212395
 C          1.0989012507        2.0042170791        0.8202471695
 C          1.5874394609        2.7683733388       -0.1728138506
 C          1.2963410415        4.2264091489       -0.4077272807
 C         -0.1660306584        4.5572577395       -0.7645881405
 C         -1.0198009881        4.9930130399        0.4329106495
 H         -0.3607813079        5.3739831997        1.2142041694
 H         -1.6572182478        5.8247667802        0.1261885196
 C         -1.9379154185        3.9170694503        1.0201132497
 H         -2.2821941882        4.2682545905        1.9956019897
 H         -2.8160055386        3.8085721307        0.3788987298
 C         -1.3240253490        2.5255274301        1.1819427797
 H         -2.0027572392        1.9281320904        1.7951402798
 H         -1.2739764694        2.0293449100        0.2094965197
 C          0.0845211910        2.5053944296        1.8077243795
 H          0.3598104415        3.4952907495        2.1693768695
 H          0.1023980308        1.8110589796        2.6503430196
 H         -0.6169274388        3.6983192797       -1.2635824504
 H         -0.1429870282        5.3752321395       -1.4867012006
 H          1.5957484918        4.7951715689        0.4755825193
 H          1.9445235615        4.5257721486       -1.2338859408
 O          2.4605223606        2.2925579384       -1.1026043107
 C          2.8770631501        0.9725452583       -1.0863146607
 O          3.6569330298        0.6645263279       -2.0127022408
 H          0.7115415392       -0.9151853409       -1.6335708303
 C          0.6029718389       -1.8154535908       -1.0460529303
 C          1.6176310589       -2.1979701612       -0.1779090904
 C          1.4570449985       -3.3691875711        0.5519410597
 C          0.2969239582       -4.1155381406        0.4335603199
 C         -0.7327512418       -3.7007103202       -0.3914305000
 C         -0.5765815114       -2.5357575403       -1.1336161501
 N         -1.6003155113       -2.0532456200       -1.9757571900
 S         -2.2478456106       -0.5487371697       -1.6175077000
 O         -3.3039095206       -0.3577585393       -2.5890130699
 O         -1.2096932002        0.4495329799       -1.6063960202
 C         -2.9724770405       -0.7520190293        0.0006503401
 C         -4.3431218706       -0.9062512187        0.0890396802
 C         -4.9175057305       -1.1273230784        1.3298557003
 C         -4.1129916304       -1.2024668087        2.4571447602
 C         -2.7394413804       -1.0522261393        2.3500340801
 C         -2.1566604104       -0.8246627996        1.1120595200
 H         -1.0899373204       -0.6942520600        1.0180369598
 H         -2.1045382203       -1.1076574895        3.2198229000
 H         -4.5576050304       -1.3778389685        3.4241079003
 H         -5.9861979606       -1.2426294580        1.4133048004
 H         -4.9266603406       -0.8400391185       -0.8150550697
 H         -2.3574308616       -2.7096301197       -2.1113853199
 H         -1.6485490520       -4.2680420599       -0.4621536099
 H          0.1853976379       -5.0226647905        1.0074794399
 H          2.2383804684       -3.6939094714        1.2194447896
 C          2.8389046592       -1.3149044717       -0.0827146206
 H          3.4354177591       -1.4502497620       -0.9972101506
 C          3.7086482993       -1.6181795320        1.1201143694
 C          4.7879328388       -2.6541488424        1.0339749893
 C          5.1471530394       -1.2006148226        1.0921995792
 H          5.5894936997       -0.8113414627        1.9968094891
 H          5.5044084195       -0.7221553027        0.1915020391
 H          4.9889067387       -3.2635461924        1.9021822593
 H          4.9152511585       -3.1678803325        0.0930268193
 H          3.1741014294       -1.5082983217        2.0565556694
 O          1.0146322499       -0.1530088108        1.8019079696
