  62
        -98.93752319
 C         -1.7844080343       -0.8850741366       -0.6637309490
 C         -2.0043551905       -0.0502086047        0.4559629622
 C         -3.4046450995        0.0895606735        0.8973345276
 C         -4.3679632906       -0.5817145320        0.2426182855
 C         -5.8493808557       -0.5359454844        0.4968760231
 C         -6.5226339450        0.5123701973       -0.4051708634
 C         -6.5469228981        1.9309643166        0.1627721632
 H         -6.9251748451        2.5887646227       -0.6232342061
 H         -7.2553518613        1.9724933831        0.9928484087
 C         -5.1963211978        2.4667520564        0.6451431285
 H         -5.2582555013        3.5564747790        0.6678482403
 H         -4.4178454957        2.2020313733       -0.0725773117
 C         -4.8113449964        1.9622895094        2.0439518292
 H         -5.6836764969        1.5026732795        2.5083455588
 H         -4.5390832628        2.8128637220        2.6722086196
 C         -3.6279354845        0.9834665959        2.0865181000
 H         -2.6935999189        1.5443958710        2.1874675516
 H         -3.7137939398        0.3582736582        2.9814998691
 H         -6.0031615828        0.5089832874       -1.3668881087
 H         -7.5537770661        0.2047624313       -0.5905538589
 H         -6.2409444308       -1.5214847118        0.2361034255
 H         -6.0552224865       -0.3435726898        1.5455891716
 O         -4.1074445541       -1.3899376253       -0.8226218826
 C         -2.8226897378       -1.5602878594       -1.3032344498
 O         -2.7333328745       -2.3290021906       -2.2825740536
 O         -1.0803802513        0.5568113223        1.0572679048
 C         -0.3764644188       -1.0780294108       -1.1967998906
 C          0.5160932262       -1.6342642453       -0.1142287461
 C          0.0757425550       -2.7291385366        0.6256026461
 C          0.8596460677       -3.2644915885        1.6283601341
 C          2.1031117874       -2.7259517133        1.9100027855
 C          2.5561303011       -1.6389326885        1.1730741936
 C          1.7647083647       -1.1031521540        0.1652770018
 H          2.1358886397       -0.2663443451       -0.4009153888
 N          3.7945453205       -1.0528764326        1.4597160054
 S          4.7211534150       -0.3304472177        0.2762758552
 O          4.6714158516       -1.0636861834       -0.9672601396
 O          6.0316083999       -0.1999036437        0.8776651683
 C          4.0157459518        1.2902549352        0.0628198924
 C          4.0064866695        1.8492928376       -1.1998695039
 C          3.4827204527        3.1214003037       -1.3673791335
 C          2.9811914481        3.8096316211       -0.2735866561
 C          3.0030324850        3.2363669953        0.9886269132
 C          3.5280212817        1.9660315734        1.1633329781
 H          3.5521884195        1.4905902007        2.1295492582
 H          2.6081496195        3.7728429429        1.8363530244
 H          2.5689500841        4.7975683973       -0.4062344804
 H          3.4649728123        3.5693781716       -2.3483782994
 H          4.3974667759        1.2729901188       -2.0236689413
 H          4.3494808116       -1.5204107652        2.1604005173
 H          2.7153016963       -3.1406781823        2.6963165633
 H          0.5024047429       -4.1109282916        2.1957047488
 H         -0.8956492926       -3.1513366809        0.4049782907
 H         -0.4529044925       -1.8329769395       -1.9935405279
 C          0.1320630459        0.2156693340       -1.7985351563
 C          1.1355251571        0.1901109399       -2.9105375243
 C         -0.2844937209        0.5775187484       -3.1913076139
 H         -0.5032097881        1.6111923940       -3.4127145563
 H         -0.9141152321       -0.1251083297       -3.7180978508
 H          1.8913530599        0.9601555905       -2.9372637232
 H          1.4803006160       -0.7742317357       -3.2526871562
 H          0.1958132309        1.0167494082       -1.0707431038
