  62
        -98.93737791
 C          2.4622906505        1.1872709744       -0.1013622311
 C          3.2268424284        0.4193937039        0.8065401318
 C          4.0296313699       -0.6704090111        0.2280711808
 C          3.9926461011       -0.8828862818       -1.0988818822
 C          4.7533319024       -1.9070860938       -1.9032974806
 C          4.8303254809       -3.3338348089       -1.3408890933
 C          3.6071202862       -3.7800449725       -0.5264887716
 H          2.7877379841       -3.0714695870       -0.6611910501
 H          3.2651081023       -4.7468600120       -0.9005297433
 C          3.9084216461       -3.9362696097        0.9662923707
 H          3.1507481214       -4.5857153282        1.4119069443
 H          4.8728819920       -4.4363943120        1.0776099588
 C          3.9233826757       -2.6393084914        1.7749508057
 H          2.9054368653       -2.2507167846        1.8723146900
 H          4.2698018026       -2.8760076121        2.7839436362
 C          4.7997366113       -1.5119549253        1.2048256883
 H          5.7118806729       -1.9071102647        0.7645291131
 H          5.0694029606       -0.8476063268        2.0303917286
 H          4.9620466342       -4.0022002185       -2.1932888514
 H          5.7215927213       -3.4346762454       -0.7231255018
 H          4.2605625682       -1.9236511780       -2.8782280495
 H          5.7677295665       -1.5299037859       -2.0610992015
 O          3.2314487068       -0.1241890859       -1.9369331684
 C          2.4442408107        0.9166942267       -1.4688459875
 O          1.7926422107        1.5051438525       -2.3509902969
 O          3.2403687102        0.6346398608        2.0494736375
 C          1.6042240832        2.3200873545        0.4289978721
 C          0.1471388957        2.0658893425        0.1265083784
 C         -0.7196711051        3.0507625132       -0.3282420171
 C         -2.0501915647        2.7559202270       -0.5721653388
 C         -2.5454767335        1.4814096364       -0.3694928413
 C         -1.6913436453        0.4910855969        0.0984400126
 C         -0.3617928617        0.7920178606        0.3491952014
 H          0.3008287313        0.0181927091        0.7190165466
 N         -2.1807541709       -0.8122886277        0.2972762787
 S         -3.5663403165       -1.0044817614        1.2270442247
 O         -3.6908274707        0.0444445412        2.2125772183
 O         -3.4943429480       -2.3576015851        1.7340048801
 C         -4.8946495472       -0.8963267105        0.0471327009
 C         -5.9104598553        0.0202082074        0.2355604294
 C         -6.9395041571        0.0793833290       -0.6914878008
 C         -6.9344460399       -0.7746178972       -1.7836687025
 C         -5.9078418622       -1.6911801359       -1.9568705637
 C         -4.8769815158       -1.7565306765       -1.0332683700
 H         -4.0627015126       -2.4552958373       -1.1295993519
 H         -5.9068921189       -2.3533087638       -2.8077315317
 H         -7.7350163866       -0.7258975762       -2.5047591257
 H         -7.7384736177        0.7909768440       -0.5587032859
 H         -5.8686281699        0.6680878342        1.0965455924
 H         -1.4714735413       -1.4715979488        0.5831224680
 H         -3.5784744690        1.2466988918       -0.5673173219
 H         -2.7102635507        3.5305383704       -0.9313604285
 H         -0.3527902350        4.0498602391       -0.4960075916
 H          1.7309036190        2.2957721138        1.5224397462
 C          2.1076370487        3.6514229854       -0.0882391023
 C          1.9433381162        4.8945706926        0.7326195894
 C          3.2988448785        4.2770383105        0.5712583341
 H          4.0270387117        4.7792083534       -0.0476670250
 H          3.7286463379        3.7553439862        1.4141284150
 H          1.7431272093        5.8255269144        0.2239952655
 H          1.4551163434        4.8005587479        1.6909617781
 H          2.0320691919        3.7326091800       -1.1667282376
