  62
        -98.94966347
 C          1.6833067864        1.2267105655        0.3412353653
 C          1.3309917008        0.1590292119       -0.5169382725
 C          1.9094682219       -1.1461895526       -0.1857052970
 C          2.6824817630       -1.2748511589        0.9075103209
 C          3.3131989296       -2.5488816707        1.4008324994
 C          4.6400263571       -2.9011962600        0.7137778552
 C          4.5172551308       -3.3916230419       -0.7294492876
 H          5.4873091955       -3.8072343221       -1.0092512109
 H          3.7897527552       -4.2026339813       -0.7739894549
 C          4.1373775025       -2.2996291828       -1.7390334247
 H          4.3133796146       -1.3172714650       -1.2949148951
 H          4.7825268209       -2.3755617526       -2.6171071583
 C          2.6915280331       -2.3674308221       -2.2305564300
 H          2.5375243084       -3.2925355392       -2.7901606014
 H          2.5210628429       -1.5285760744       -2.9096820610
 C          1.6424795083       -2.2926852441       -1.1131814297
 H          0.6617419816       -2.1303251058       -1.5672249446
 H          1.6121624420       -3.2295067370       -0.5566708687
 H          5.2925105482       -2.0256356500        0.7477309584
 H          5.1114816506       -3.6900615302        1.3045462303
 H          3.5030478267       -2.4070734065        2.4672468714
 H          2.6069452485       -3.3718596189        1.2843648540
 O          2.9721617185       -0.2297389531        1.7286175706
 C          2.4835228933        1.0400627514        1.4661542713
 O          2.8256147388        1.9067381937        2.2986801248
 O          0.5662090757        0.2904682096       -1.5089603636
 C          1.1204037682        2.6122306301        0.0836004475
 C         -0.3869125974        2.5504432404        0.0151078333
 C         -1.1388268960        3.2899975229       -0.8898134807
 C         -2.5182737162        3.1771436761       -0.9148583401
 C         -3.1738389908        2.3111435563       -0.0588227802
 C         -2.4309636621        1.5750274938        0.8565826976
 C         -1.0548574345        1.7219981156        0.9077989313
 H         -0.4940803352        1.1441851930        1.6284508335
 N         -3.0443793446        0.6603845271        1.7393284618
 S         -2.6387176632       -0.9569460774        1.5565818928
 O         -3.4591214544       -1.6577366617        2.5220740496
 O         -1.2147665420       -1.1289335624        1.6844789309
 C         -3.1938098568       -1.3641918213       -0.0899599361
 C         -2.4322658043       -0.9866035729       -1.1776701867
 C         -2.9183319295       -1.2452816578       -2.4507856561
 C         -4.1459366413       -1.8675579598       -2.6146706664
 C         -4.8983727760       -2.2393325461       -1.5104391990
 C         -4.4220806535       -1.9812517022       -0.2356408812
 H         -4.9691198597       -2.2537901198        0.6525387774
 H         -5.8521431760       -2.7253808714       -1.6385726354
 H         -4.5167247970       -2.0640024895       -3.6083248322
 H         -2.3266920286       -0.9520412110       -3.3032612592
 H         -1.4766835691       -0.5061914287       -1.0319338221
 H         -4.0520629939        0.7419773445        1.7695335413
 H         -4.2473027830        2.2021497011       -0.0961148832
 H         -3.0884178735        3.7575535376       -1.6239154178
 H         -0.6427034872        3.9517816978       -1.5808277674
 H          1.4028955034        3.2249666215        0.9527256785
 C          1.7496581465        3.2064336514       -1.1608989682
 C          1.9710296792        4.6844124477       -1.2708294667
 C          3.1369936543        3.7647786349       -1.0711154686
 H          3.8145699323        3.5998294465       -1.8953362660
 H          3.6153498152        3.7432442090       -0.1023403625
 H          1.8522087930        5.1536258744       -2.2358684151
 H          1.6662565130        5.3000536644       -0.4380431676
 H          1.4886853816        2.6575287476       -2.0585353715
