  62
        -98.94870672
 C         -1.5268769176       -1.3433008624       -0.3471183873
 C         -0.4233265872       -1.6681684030       -1.1700405902
 C          0.5360857015       -2.6237085667       -0.6074734883
 C          0.3559814659       -3.0912507832        0.6411195809
 C          1.2234328803       -4.1019173600        1.3420535586
 C          2.4782635816       -3.5064372798        1.9936593324
 C          3.5860339523       -3.1055658542        1.0194198840
 H          4.4874752356       -2.9382811144        1.6125975147
 H          3.7911228961       -3.9336635423        0.3398329795
 C          3.2874480258       -1.8333809902        0.2140998809
 H          2.4925060150       -1.2658974621        0.7063245101
 H          4.1773850264       -1.1984752937        0.2123736386
 C          2.9044572714       -2.0739776499       -1.2466105484
 H          3.7623155335       -2.4829851512       -1.7856726010
 H          2.6486934153       -1.1100918366       -1.6941321611
 C          1.7137270012       -3.0187473486       -1.4471674909
 H          1.4057225984       -2.9591680244       -2.4941833723
 H          2.0070219037       -4.0451329991       -1.2262448740
 H          2.1851680487       -2.6354405516        2.5854747494
 H          2.8782339359       -4.2575819397        2.6791732072
 H          0.6066602639       -4.5471712486        2.1258439873
 H          1.5131326230       -4.8854746605        0.6406142026
 O         -0.6886786065       -2.7106296840        1.4228779744
 C         -1.6430805585       -1.8181787551        0.9589360973
 O         -2.5359890389       -1.5474985498        1.7857873604
 O         -0.2567326420       -1.1930234196       -2.3263892282
 C         -2.5763252118       -0.3754690406       -0.8658754488
 C         -2.5862293091        0.8525675486        0.0092086940
 C         -3.7326575747        1.4061778296        0.5619852210
 C         -3.6403403747        2.5011551314        1.4046976946
 C         -2.4138804429        3.0572046232        1.7168180479
 C         -1.2616919964        2.5214373511        1.1500320652
 C         -1.3601409458        1.4459185358        0.2845485448
 H         -0.4646863102        1.0231351319       -0.1474924762
 N         -0.0034568272        3.0805742463        1.4128099194
 S          1.4062480607        2.2017742355        1.2636094180
 O          1.2388713188        0.8135732789        1.6307029251
 O          2.3749113401        2.9394442593        2.0490607614
 C          1.8609711382        2.3394287868       -0.4546459727
 C          1.1297919129        3.1042280503       -1.3403404204
 C          1.5527480324        3.1867472406       -2.6584076846
 C          2.6934576452        2.5146964375       -3.0670625615
 C          3.4228230187        1.7581574824       -2.1632093955
 C          3.0043860143        1.6711135749       -0.8455067234
 H          3.5396659976        1.0934882454       -0.1092831592
 H          4.3112079113        1.2345804052       -2.4785826845
 H          3.0156643116        2.5790557585       -4.0943201870
 H          0.9862632999        3.7749220446       -3.3624495835
 H          0.2426699707        3.6142592897       -1.0034365085
 H          0.0346080987        3.7566230347        2.1599938808
 H         -2.3424636079        3.8942492991        2.3942555074
 H         -4.5369090559        2.9175844069        1.8382868388
 H         -4.6954723388        0.9716201361        0.3497698199
 H         -2.2344936815       -0.0839889646       -1.8701624667
 C         -3.9239387586       -1.0544588385       -0.9829427345
 C         -4.9272871383       -0.5710545048       -1.9861354774
 C         -4.2197408485       -1.8739814749       -2.2020196972
 H         -4.7756629577       -2.7918004257       -2.0830493971
 H         -3.4548211833       -1.9230965043       -2.9631265106
 H         -5.9736095097       -0.5956266938       -1.7216593939
 H         -4.6478683419        0.2653764237       -2.6083621501
 H         -4.2859308639       -1.4257200878       -0.0306778941
