  62
        -98.93775985
 C         -2.3834270299       -0.0120460094       -0.4423836593
 C         -3.3661024198        0.6984591399        0.2899887915
 C         -4.5057095599       -0.0980755605        0.7669562608
 C         -4.5452367300       -1.4235729603        0.5461182694
 C         -5.6297696400       -2.3666766607        0.9909226485
 C         -6.8370216401       -2.4182287095        0.0442280485
 C         -7.7412326900       -1.1851759595        0.0731273899
 H         -8.6543610701       -1.4454627888       -0.4659666403
 H         -8.0230575399       -0.9667213506        1.1036284701
 C         -7.1281726699        0.0660263112       -0.5712378588
 H         -6.2826258600       -0.2242593983       -1.1990587392
 H         -7.8652271300        0.5370223419       -1.2255836183
 C         -6.6623945398        1.1281931000        0.4246644523
 H         -7.5232793697        1.5239709395        0.9681145228
 H         -6.2116062397        1.9503868506       -0.1368843969
 C         -5.6296216097        0.6280976689        1.4430072617
 H         -5.2051149996        1.4947540783        1.9555443826
 H         -6.1089874197       -0.0142084519        2.1812999410
 H         -6.4755063902       -2.5810012385       -0.9737583517
 H         -7.4354044402       -3.2873555398        0.3271097776
 H         -5.1799711801       -3.3611027907        1.0298467974
 H         -5.9628430699       -2.0967299617        1.9934503888
 O         -3.5564971401       -2.0797490396       -0.1173102414
 C         -2.4762301201       -1.3933472292       -0.6421301808
 O         -1.6687330002       -2.1148990786       -1.2629363716
 O         -3.3220054197        1.9304539296        0.5462047929
 C         -1.1614655099        0.6478491612       -1.0622960987
 C         -0.0644078398        0.8408264000       -0.0417405886
 C         -0.2263917897        1.6889672188        1.0483407724
 C          0.7974086804        1.8547857677        1.9632097924
 C          1.9988648403        1.1854443578        1.8116265116
 C          2.1721878002        0.3385813089        0.7253573207
 C          1.1432685301        0.1753099000       -0.1943228194
 H          1.2756977200       -0.4954574091       -1.0328848001
 N          3.3843819501       -0.3578394510        0.5738942099
 S          4.8088477202        0.5002915286        0.8760725207
 O          5.0691474103        0.4658117370        2.2935766606
 O          4.7289647703        1.8150880192        0.2809479621
 C          6.0080044500       -0.4982914206        0.0161078095
 C          6.5411670900       -1.6024344814        0.6535616083
 C          7.4592298099       -2.3880023007       -0.0250562826
 C          7.8263143298       -2.0587963994       -1.3214724723
 C          7.2830908198       -0.9470330686       -1.9476607911
 C          6.3634747000       -0.1576986693       -1.2753468802
 H          5.9239075400        0.7214307212       -1.7188176192
 H          7.5726519398       -0.6920611776       -2.9543907608
 H          8.5428905097       -2.6705671789       -1.8463764830
 H          7.8860120798       -3.2517121013        0.4587187964
 H          6.2344072901       -1.8137691524        1.6646117381
 H          3.4323330900       -0.8610040201       -0.3013484507
 H          2.8057813704        1.3121314970        2.5157074517
 H          0.6594997705        2.5148499269        2.8067186132
 H         -1.1645246796        2.2063160188        1.1772127230
 H         -0.7940368201       -0.0648918381       -1.8130385695
 C         -1.4804276799        1.9541421119       -1.7638075373
 C         -0.5369801499        2.4619284930       -2.8104554068
 C         -1.8819591600        1.9319259935       -3.2064273773
 H         -2.6348682700        2.6290317939       -3.5421790864
 H         -1.9268862601        0.9708995640       -3.6985000083
 H         -0.3624377398        3.5249703530       -2.8737166357
 H          0.3315874600        1.8611419831       -3.0350530475
 H         -1.9628509098        2.6806698813       -1.1242030764
