  62
        -98.94264497
 C         -1.8006309727       -1.5069718657        0.2326052938
 C         -1.4590326455       -0.1495271849        0.0031559378
 C         -2.4764150181        0.8395335990        0.3997224725
 C         -3.6254232373        0.4272583247        0.9623521937
 C         -4.7647786496        1.3245091604        1.3481822423
 C         -5.7664440101        1.4771322582        0.1947966075
 C         -5.1184135336        1.8259256855       -1.1452592505
 H         -4.5030961131        0.9849893935       -1.4733644916
 H         -5.9228441086        1.9379135881       -1.8755803553
 C         -4.2641317636        3.1011823374       -1.1249668356
 H         -4.5010841190        3.6946614970       -2.0105968417
 H         -4.5208935617        3.7042580105       -0.2533731703
 C         -2.7544482848        2.8538214257       -1.1435119579
 H         -2.2583566454        3.8073181972       -1.3426955490
 H         -2.5053563476        2.1775417976       -1.9651551792
 C         -2.1553383517        2.2859004319        0.1492349425
 H         -1.0664270106        2.3337637642        0.0616387562
 H         -2.4635702480        2.8999474401        0.9975184201
 H         -6.4880616310        2.2505788092        0.4641960923
 H         -6.3072746540        0.5348643200        0.0785380830
 H         -4.3730797730        2.2987477649        1.6339552285
 H         -5.2759099382        0.8828426954        2.2053408719
 O         -3.9001126605       -0.8802567926        1.2039978458
 C         -3.0002861779       -1.8715412969        0.8519857272
 O         -3.3752472205       -3.0252526082        1.1430252078
 O         -0.3784833597        0.2381159734       -0.5092810008
 C         -0.8595440370       -2.6498980770       -0.1149584006
 C          0.5279862519       -2.3237710226        0.3751718834
 C          0.8071369720       -2.4121454438        1.7350693667
 C          2.0533274717       -2.0659169694        2.2237485454
 C          3.0409013956       -1.6105664240        1.3682215558
 C          2.7650822880       -1.5034104977        0.0115519178
 C          1.5212893540       -1.8752536585       -0.4799309518
 H          1.3140839609       -1.7739574902       -1.5336516525
 N          3.7516098101       -1.0206234352       -0.8681103526
 S          4.5637919313        0.3871913846       -0.4701990852
 O          5.1594141481        0.8337424872       -1.7100467582
 O          5.4825322574        0.1150528631        0.6080109928
 C          3.3262255729        1.5520781564        0.0672993391
 C          3.1187907478        1.7583932564        1.4154737613
 C          2.1416048861        2.6569679210        1.8112989472
 C          1.3957450972        3.3312777784        0.8577704312
 C          1.6157652071        3.1112383208       -0.4930632088
 C          2.5862317653        2.2094865205       -0.8943549832
 H          2.7897380984        2.0182909342       -1.9356425233
 H          1.0306436309        3.6333392492       -1.2333499194
 H          0.6379138135        4.0332252960        1.1697275303
 H          1.9641775559        2.8274760184        2.8612336954
 H          3.7277637162        1.2252910200        2.1269012854
 H          3.4368660027       -0.9730119238       -1.8266346378
 H          4.0166110444       -1.3311485302        1.7311940299
 H          2.2576438524       -2.1461934187        3.2808091855
 H          0.0292566036       -2.7483974640        2.4072522631
 H         -1.2319019714       -3.5111879007        0.4621973630
 C         -0.8907405758       -3.0628367051       -1.5794844875
 C         -2.1890700946       -3.1020396885       -2.3274305880
 C         -1.1433741865       -2.0943458175       -2.6940368365
 H         -0.6056500848       -2.2314024847       -3.6213057203
 H         -1.3107081951       -1.0605675143       -2.4363582177
 H         -2.3723244402       -3.9259184285       -3.0005892735
 H         -3.0717556385       -2.7599215825       -1.8065869157
 H         -0.1918944618       -3.8685787216       -1.7842871575
