  62
        -98.94464447
 C         -1.6777197230       -1.4776204553       -0.2553843676
 C         -1.5602729392       -0.2488372222       -0.9508539964
 C         -2.8164264344        0.4860716151       -1.1705501064
 C         -3.9751278760       -0.0270889259       -0.7209704742
 C         -5.3104918223        0.6508987275       -0.8150932745
 C         -5.5859461393        1.5037947400        0.4313073066
 C         -4.4312941058        2.4292333721        0.8167530299
 H         -3.5737505392        1.8262920055        1.1257731568
 H         -4.7509264131        3.0008794898        1.6909123257
 C         -3.9938980055        3.3959377459       -0.2925903042
 H         -3.8566351430        4.3883797133        0.1420495694
 H         -4.7802382489        3.4768336649       -1.0442758231
 C         -2.6766967610        3.0255246699       -0.9773922568
 H         -1.8998298552        2.8606689121       -0.2249625507
 H         -2.3601525207        3.8771467197       -1.5862124000
 C         -2.7271114593        1.7986901088       -1.8966101844
 H         -1.7886095525        1.7695466636       -2.4577134918
 H         -3.5500023247        1.9043740447       -2.6066705530
 H         -5.7818613123        0.8347988065        1.2724345270
 H         -6.4843858327        2.0972204028        0.2524165007
 H         -6.0817119059       -0.1168156415       -0.8965886800
 H         -5.3348421322        1.2736675015       -1.7070663441
 O         -4.0519388469       -1.2176733367       -0.0739488237
 C         -2.9124839620       -1.9572244564        0.1904503343
 O         -3.1262507767       -3.0167243731        0.8138285786
 O         -0.4773750874        0.2201023457       -1.3858548510
 C         -0.4639688822       -2.3238550390        0.1036934575
 C          0.2231370756       -1.6731723168        1.2813531603
 C         -0.2661912859       -1.9071589214        2.5641928265
 C          0.3190222447       -1.3043452927        3.6610393547
 C          1.3942094761       -0.4473929031        3.4994503098
 C          1.8836202835       -0.1986123710        2.2230852401
 C          1.3045512146       -0.8203700453        1.1246087965
 H          1.6877944517       -0.6156377880        0.1409801965
 N          2.9827905329        0.6519210643        2.0262081131
 S          2.9150426387        1.8084973270        0.8062308996
 O          3.8939302696        2.7985715411        1.2105046278
 O          1.5696080207        2.2945815851        0.6178952347
 C          3.5312603596        0.9640513036       -0.6340273419
 C          2.7178879739        0.7597625736       -1.7304227537
 C          3.2391945877        0.0920187096       -2.8286858821
 C          4.5521937730       -0.3520454844       -2.8129125123
 C          5.3559520155       -0.1334415125       -1.7037996577
 C          4.8429022944        0.5316141313       -0.6024726817
 H          5.4335497999        0.7290613348        0.2763680597
 H          6.3764808775       -0.4809674769       -1.6945633065
 H          4.9495517436       -0.8725606070       -3.6702305889
 H          2.6102406662       -0.0820070371       -3.6875940537
 H          1.6916998502        1.0924963430       -1.6991180976
 H          3.3552369001        1.0528713347        2.8753742734
 H          1.8493759141        0.0289733732        4.3550053290
 H         -0.0673271445       -1.4973336781        4.6507183920
 H         -1.1190866034       -2.5606342925        2.6854866760
 H         -0.8663050837       -3.2868777991        0.4469780943
 C          0.4567990264       -2.5735295915       -1.0719602766
 C          1.5283368335       -3.6133616007       -0.9471005040
 C          0.3452545910       -3.8584081579       -1.8335461434
 H          0.4872778375       -3.8354889262       -2.9034861998
 H         -0.3983002148       -4.5715396995       -1.5079912447
 H          2.4862691935       -3.4222082099       -1.4058514866
 H          1.5857115962       -4.1591271256       -0.0173461336
 H          0.6840168938       -1.6822444316       -1.6412573208
