  62
        -98.94210336
 C         -0.8514163898       -1.2053614835        0.7130648205
 C         -1.4422177248       -1.0148150035       -0.5570418034
 C         -2.2682592303        0.1955036946       -0.7213722185
 C         -2.4038473441        1.0506590698        0.3087620249
 C         -3.1332784878        2.3748261357        0.4158356690
 C         -4.1696475487        2.7831413268       -0.6279286407
 C         -5.4319479118        1.9225679121       -0.6498980675
 H         -5.9890625189        2.0975686862        0.2738166273
 H         -6.0551668918        2.2552731282       -1.4828506954
 C         -5.2013735329        0.4185020754       -0.7728295941
 H         -4.6785639882        0.0528314661        0.1131594989
 H         -6.1798292201       -0.0688824027       -0.7938692416
 C         -4.4349494865       -0.0253440541       -2.0177611291
 H         -4.9176777754        0.3764892374       -2.9107330874
 H         -4.4930829051       -1.1158515807       -2.0683955779
 C         -2.9440219134        0.3570024815       -2.0514396027
 H         -2.7964999969        1.3646701124       -2.4346076379
 H         -2.4315799085       -0.3241500478       -2.7375478473
 H         -3.7160436482        2.8181166981       -1.6143971327
 H         -4.4713342175        3.8052438827       -0.3824552708
 H         -3.6034810143        2.3751795322        1.4044135388
 H         -2.3540813293        3.1455015563        0.4421262367
 O         -1.7911889443        0.8347931716        1.5105611296
 C         -0.9999130638       -0.2770705171        1.7399997529
 O         -0.4934875695       -0.3223526456        2.8790758108
 O         -1.2914152551       -1.8174098668       -1.5152954960
 C          0.0396143606       -2.4073729183        0.9668356318
 C          1.2124537088       -2.3771378083        0.0161633425
 C          1.6999825989       -3.4994397228       -0.6405449157
 C          2.7742628963       -3.3894869113       -1.5068821095
 C          3.3732099991       -2.1661882539       -1.7453214968
 C          2.8993547585       -1.0388076183       -1.0839055856
 C          1.8437868512       -1.1582600161       -0.1963104577
 H          1.4815376658       -0.2805421029        0.3191063090
 N          3.4841323375        0.2223489119       -1.2783389139
 S          2.5038940748        1.5785142745       -1.3323122078
 O          1.2228443746        1.2988689022       -1.9373997282
 O          3.3154603960        2.5747668676       -2.0021524104
 C          2.2964961308        2.0607622234        0.3673446012
 C          1.0364240335        2.4071144894        0.8114615629
 C          0.8709852446        2.7998420286        2.1294160844
 C          1.9683627646        2.8430763649        2.9749367929
 C          3.2298017074        2.5004809102        2.5118139659
 C          3.4008006984        2.1063269101        1.1944895070
 H          4.3639535687        1.8292530216        0.7996357430
 H          4.0786269098        2.5349494448        3.1756927771
 H          1.8347715863        3.1408964680        4.0028400546
 H         -0.1131029870        3.0497980826        2.4927412114
 H          0.2095684575        2.3388469331        0.1203770885
 H          4.2071396483        0.2541630777       -1.9827182522
 H          4.1962634914       -2.0794988479       -2.4382656179
 H          3.1411309678       -4.2678711116       -2.0159671019
 H          1.2337279928       -4.4581070122       -0.4826191611
 H          0.4277018877       -2.2861743166        1.9893019451
 C         -0.7626600977       -3.6900037906        0.8974325670
 C         -0.3650469100       -4.8771839043        1.7209151003
 C         -1.5876632913       -4.0901013719        2.0823929973
 H         -2.5579235756       -4.5312412421        1.9102773170
 H         -1.5473863788       -3.4497216063        2.9517268844
 H         -0.4986007784       -5.8632773489        1.3021287747
 H          0.5040407303       -4.7789700287        2.3535788828
 H         -1.1825040613       -3.8637389860       -0.0866832663
