  62
        -98.94044122
 C         -2.3518617849       -0.7807345096       -0.1693078185
 C         -3.5831262368       -1.1311504146        0.4347565720
 C         -4.7818738214       -0.5071509927       -0.1400892789
 C         -4.6499300176        0.3258663666       -1.1887424325
 C         -5.7791242153        1.0717045946       -1.8377251930
 C         -5.9733140543        2.4524938454       -1.1954924641
 C         -6.0366256647        2.4193907693        0.3315205867
 H         -5.0646770657        2.1078381828        0.7210780518
 H         -6.2056756773        3.4431302176        0.6723099938
 C         -7.1287630157        1.5036374144        0.9017977587
 H         -7.6456192165        2.0333351562        1.7047839994
 H         -7.8677948149        1.2838924712        0.1305786590
 C         -6.6112762300        0.1919831769        1.4952604454
 H         -5.8044039221        0.4025246139        2.2018082646
 H         -7.4258542148       -0.2714139062        2.0581842531
 C         -6.1068012776       -0.8452793730        0.4839140378
 H         -6.8644746257       -1.0087741753       -0.2849379607
 H         -5.9530768124       -1.7857660324        1.0210342024
 H         -5.1371333958        3.0910911949       -1.4894550191
 H         -6.8916577970        2.8906647057       -1.5904092361
 H         -5.5414428721        1.2025309359       -2.8946726545
 H         -6.6922759720        0.4863455601       -1.7500270260
 O         -3.4518055170        0.6251109955       -1.7528510786
 C         -2.2718423105        0.0935495292       -1.2530573172
 O         -1.2469676088        0.4684136514       -1.8534353486
 O         -3.6739202260       -1.9232500918        1.4113330114
 C         -1.0698670290       -1.3775317965        0.3825204390
 C         -0.1447820844       -0.2776173551        0.8406851836
 C         -0.6161613461        0.6469718231        1.7704017874
 C          0.1915987140        1.6730488600        2.2188555465
 C          1.4908879696        1.7948710972        1.7576492742
 C          1.9698606991        0.8808870175        0.8271598969
 C          1.1544810026       -0.1498148005        0.3784670106
 H          1.5534774351       -0.8437848829       -0.3416355198
 N          3.2714801175        1.0019084191        0.3166586501
 S          4.1260768604       -0.3868648120       -0.1113096845
 O          3.7128839001       -0.8147438665       -1.4239162049
 O          4.0318826172       -1.3732418683        0.9417350303
 C          5.7799165733        0.2760808916       -0.1914656734
 C          6.6527906627        0.0666675073        0.8592650540
 C          7.9256470443        0.6116205166        0.7919905404
 C          8.3005717700        1.3552233326       -0.3167502458
 C          7.4134802686        1.5564423611       -1.3641320756
 C          6.1403547107        1.0126861351       -1.3043490783
 H          5.4205721860        1.1341405287       -2.0972175187
 H          7.7091088068        2.1330429851       -2.2257605343
 H          9.2913114626        1.7785599000       -0.3667971276
 H          8.6188529842        0.4539595888        1.6024621864
 H          6.3193891329       -0.5240449785        1.6972356898
 H          3.8436218772        1.6502213739        0.8398365553
 H          2.1239807695        2.5960411664        2.1075158759
 H         -0.1892790844        2.3816704256        2.9390512128
 H         -1.6299788190        0.5471704140        2.1344890619
 H         -1.3739044201       -1.9577760219        1.2669283309
 C         -0.4425931747       -2.3205967469       -0.6213370073
 C          0.4728093066       -3.4109806370       -0.1537518562
 C         -0.8936555963       -3.7483244794       -0.6680791038
 H         -0.9789217935       -4.2305072839       -1.6302711390
 H         -1.6467662452       -4.0538573312        0.0435236291
 H          1.3331381299       -3.6546851151       -0.7594913218
 H          0.6536241080       -3.4890584485        0.9079361500
 H         -0.2150601382       -1.8370999478       -1.5655478049
