  62
        -98.93191547
 C          2.2170103759       -0.7071315771        0.0543808496
 C          3.5330367097       -1.2210193935        0.1597637317
 C          4.6288552611       -0.3571871851       -0.3127577090
 C          4.3363940830        0.8452034870       -0.8416004320
 C          5.2275858374        1.9203341509       -1.4279526971
 C          6.7372803258        1.8912951767       -1.2034506306
 C          7.1742384148        2.1327572076        0.2411178628
 H          8.2556233397        1.9913878365        0.2989652588
 H          6.9603457991        3.1730581440        0.4991272386
 C          6.5017943342        1.2515446407        1.2909938441
 H          5.4295403810        1.4584706923        1.3112344427
 H          6.9008541226        1.5334231385        2.2692166993
 C          6.7152107356       -0.2510462900        1.1179019576
 H          6.3233584779       -0.7441210501        2.0117474449
 H          7.7838039928       -0.4660749175        1.0593327554
 C          6.0196688706       -0.8821805562       -0.1006953868
 H          6.6161696016       -0.7646587412       -1.0020252500
 H          5.9158047438       -1.9547456084        0.0873341511
 H          7.1570047257        2.6960933188       -1.8130793472
 H          7.1557914870        0.9620188051       -1.5782886924
 H          4.8284902020        2.8701834032       -1.0578074027
 H          5.0369080941        1.9075398931       -2.5067608280
 O          3.0471871241        1.2742099571       -0.9764245917
 C          1.9615437061        0.5283333664       -0.5383743898
 O          0.8624120103        1.0760855199       -0.7460349951
 O          3.7851932254       -2.3651849280        0.6228546264
 C          1.0806635135       -1.5724610609        0.5667539681
 C         -0.0554607497       -1.5953419222       -0.4241899735
 C          0.1796086953       -2.1151517948       -1.6946060188
 C         -0.8231615893       -2.1383239430       -2.6434323303
 C         -2.0821817864       -1.6493572585       -2.3434983194
 C         -2.3322238804       -1.1411343353       -1.0741386704
 C         -1.3221281954       -1.1210656055       -0.1224662478
 H         -1.5318072161       -0.6964516525        0.8438687718
 N         -3.6249751943       -0.6970166065       -0.7417201942
 S         -3.8862912168        0.5636901882        0.3461434579
 O         -3.2941905515        1.7929509596       -0.1322716649
 O         -3.5087892927        0.1356379004        1.6690650388
 C         -5.6649004877        0.6633175379        0.2382885106
 C         -6.2474285067        1.6222523225       -0.5683394854
 C         -7.6294457891        1.6686885965       -0.6651918217
 C         -8.4015333148        0.7585741941        0.0407395110
 C         -7.8028534346       -0.1975404881        0.8477903808
 C         -6.4218283266       -0.2484655310        0.9493747105
 H         -5.9126052654       -0.9672859471        1.5696507524
 H         -8.4065938738       -0.9015063637        1.3974550121
 H         -9.4766551277        0.7965838526       -0.0364417080
 H         -8.0974046446        2.4131463255       -1.2889941659
 H         -5.6072676799        2.3148469376       -1.0911175008
 H         -4.2050214684       -0.5676457615       -1.5601879140
 H         -2.8647040251       -1.6593177788       -3.0872213955
 H         -0.6235107068       -2.5341480252       -3.6280642766
 H          1.1677634105       -2.4865335094       -1.9316203826
 H          1.5097068033       -2.5879953292        0.6138385468
 C          0.6327830914       -1.2255385003        1.9786723912
 C          1.5765740660       -0.6157728997        2.9701042606
 C          0.4350690540        0.1895758340        2.4294005762
 H         -0.4031871743        0.4075260501        3.0759324872
 H          0.6428977066        0.9745099242        1.7182228569
 H          1.5310501512       -0.9513705728        3.9951720817
 H          2.5741268056       -0.3765209336        2.6312045180
 H         -0.0673650353       -1.9568027168        2.3721492812
