  62
        -98.94648278
 C         -1.1832143115       -1.1339332016        0.5766396671
 C         -1.6448463372       -0.6160363089       -0.6581528270
 C         -2.4446226226        0.6134930529       -0.5678265279
 C         -2.5929621718        1.2325767838        0.6165160321
 C         -3.3676333894        2.4977656939        0.8666097745
 C         -4.8716911843        2.2709705421        1.0744517802
 C         -5.6540060158        1.9055113735       -0.1879250556
 H         -6.7144979306        1.9923299637        0.0569277610
 H         -5.4412886788        2.6346078802       -0.9703820682
 C         -5.3843445953        0.4885508158       -0.7137569912
 H         -4.9151942916       -0.1085286012        0.0716334207
 H         -6.3328998186        0.0050062379       -0.9581257078
 C         -4.5112570360        0.4314608237       -1.9675882237
 H         -4.3557887962       -0.6185802705       -2.2277617877
 H         -5.0334977783        0.9098362271       -2.7991355246
 C         -3.1348398529        1.0915075341       -1.8095150848
 H         -3.2420793930        2.1756875731       -1.7989245600
 H         -2.5182316036        0.8054454772       -2.6645908469
 H         -5.0077292143        1.4900627501        1.8262608512
 H         -5.2885936142        3.1963460684        1.4786020500
 H         -2.9573479008        2.9397798809        1.7768146593
 H         -3.2193425765        3.1955124138        0.0423990820
 O         -2.0180394511        0.7704561631        1.7589384282
 C         -1.3347975215       -0.4322384108        1.7733651731
 O         -0.9003707113       -0.7614126840        2.8976525726
 O         -1.4193172538       -1.1464280126       -1.7748569607
 C         -0.4332837944       -2.4560061889        0.6403255344
 C          0.9425661770       -2.2543707761        0.0548176453
 C          1.3759117506       -2.8255044490       -1.1331688863
 C          2.6411165685       -2.5450003150       -1.6235773441
 C          3.4976810028       -1.7000105227       -0.9416719632
 C          3.0716911060       -1.1265783196        0.2501057358
 C          1.8057261860       -1.4043631522        0.7374646794
 H          1.4705140891       -0.9517526836        1.6625870156
 N          3.9325971828       -0.2459256385        0.9467021173
 S          4.2248782195        1.2125658382        0.1761446429
 O          4.9765885255        0.9573590940       -1.0253110948
 O          4.8583974178        2.0577708559        1.1619743412
 C          2.6105326201        1.8495478949       -0.2352777105
 C          1.9917733103        1.4157838864       -1.3908772205
 C          0.7176712952        1.8756763674       -1.6797188886
 C          0.0900277629        2.7581193296       -0.8147335865
 C          0.7202755285        3.1771440487        0.3463777156
 C          1.9911992757        2.7138679177        0.6449304097
 H          2.5194822646        3.0190271539        1.5342937312
 H          0.2246001882        3.8590441333        1.0187268193
 H         -0.8969271204        3.1214283311       -1.0500003481
 H          0.2157857313        1.5364228705       -2.5714616108
 H          2.5133068138        0.7372783153       -2.0458374143
 H          3.6144433737       -0.0565244565        1.8875770116
 H          4.4782842858       -1.4589352499       -1.3188251705
 H          2.9641945127       -2.9918949831       -2.5515243436
 H          0.7198378239       -3.4794682641       -1.6828932973
 H         -0.3084468350       -2.6778280970        1.7097126750
 C         -1.2216224238       -3.5775445125        0.0006472638
 C         -0.8909762616       -4.9982258073        0.3426161028
 C         -2.1605173387       -4.3818137354        0.8465870048
 H         -3.0971901123       -4.7020233009        0.4154584284
 H         -2.2270865054       -4.1330502705        1.8960763269
 H         -0.9563436487       -5.7454583654       -0.4333937288
 H         -0.0941711394       -5.1684398913        1.0509908940
 H         -1.5336915362       -3.3559017061       -1.0121248044
