  62
        -98.94171778
 C         -1.7092536940       -0.5007976283       -0.2469497322
 C         -2.8380178255       -1.2981481001        0.0767993407
 C         -4.1461359167       -0.7610755003       -0.3120084423
 C         -4.2184830025        0.4297655565       -0.9329931785
 C         -5.4737601842        1.0972384734       -1.4260351769
 C         -6.2224788560        1.8959324466       -0.3503981618
 C         -6.9439793951        1.0524192487        0.7014683748
 H         -7.5985069790        1.7260361941        1.2581381860
 H         -7.5794524606        0.3192189985        0.2037718086
 C         -6.0103780689        0.3410356242        1.6908725158
 H         -6.3839860988        0.4791826436        2.7080046431
 H         -5.0194329714        0.7991969545        1.6494351327
 C         -5.8702838754       -1.1636261137        1.4598217716
 H         -6.8329274295       -1.6512101279        1.6285187778
 H         -5.1600111909       -1.5582258336        2.1907143314
 C         -5.3689918203       -1.5438936181        0.0604297405
 H         -5.0972876956       -2.6022782008        0.0696005732
 H         -6.1574808124       -1.3911402178       -0.6762420921
 H         -6.9643864968        2.5137437237       -0.8617461178
 H         -5.5145780114        2.5667034339        0.1420956418
 H         -6.1409471130        0.3495177659       -1.8561100991
 H         -5.1685320674        1.7867993909       -2.2162031780
 O         -3.1171541195        1.1763947111       -1.2063815325
 C         -1.8399988115        0.7505299634       -0.8517606217
 O         -0.9477510241        1.5715551513       -1.1324583109
 O         -2.7545237264       -2.4091071030        0.6639414240
 C         -0.3441903557       -1.0401012426        0.1423945862
 C          0.4720669425        0.0189982061        0.8363089174
 C          0.0969866534        0.4277892106        2.1136961407
 C          0.8103400566        1.4042356848        2.7808658083
 C          1.9250523836        1.9798256832        2.1964396764
 C          2.3043911100        1.5827735975        0.9200137894
 C          1.5804285872        0.6067381802        0.2482919450
 H          1.8648225566        0.3516811041       -0.7580870430
 N          3.4230871695        2.1536995729        0.3011168909
 S          4.3690524175        1.2715437305       -0.7481110391
 O          5.6553988754        1.9357451322       -0.7089588369
 O          3.7551895471        1.1774052685       -2.0482845350
 C          4.5066644319       -0.3524873776       -0.0197464611
 C          4.9733490037       -0.4585106310        1.2756191142
 C          5.0785217987       -1.7147921208        1.8497614319
 C          4.7199236480       -2.8394485793        1.1223962416
 C          4.2617790725       -2.7177746144       -0.1800684908
 C          4.1526401193       -1.4628358688       -0.7580582876
 H          3.7959444888       -1.3216061306       -1.7659454534
 H          3.9858441439       -3.5934029789       -0.7460858978
 H          4.7993137354       -3.8168081249        1.5714420495
 H          5.4379536580       -1.8136559293        2.8612483843
 H          5.2524960691        0.4333486649        1.8122347633
 H          3.9614811519        2.7889153933        0.8700019676
 H          2.4860009748        2.7421076083        2.7152771411
 H          0.5031625036        1.7160632015        3.7677412456
 H         -0.7722623655       -0.0242237875        2.5717008649
 H         -0.5673955145       -1.8310845109        0.8778448913
 C          0.4114290892       -1.7108092834       -0.9947932910
 C         -0.3142133821       -2.4593883081       -2.0710946168
 C          0.3993254372       -1.1829097030       -2.3965130451
 H          1.3128178666       -1.2293873038       -2.9722214502
 H         -0.1851691425       -0.2982340251       -2.5964092266
 H          0.1050847840       -3.3893666712       -2.4239736861
 H         -1.3942065303       -2.4470905756       -2.0480040190
 H          1.3448748718       -2.1456488763       -0.6496319993
