  62
        -98.94365573
 C          2.6355241902        0.0004014402       -0.4454411603
 C          2.2069992406        0.5107051307        0.8042657096
 C          1.9071414008        1.9488495307        0.8409131792
 C          2.0478608006        2.6809884203       -0.2788113111
 C          1.8011182707        4.1585025003       -0.3778100915
 C          0.3653698007        4.4801496304       -0.8102983912
 C         -0.7102202392        3.7498515808       -0.0059723208
 H         -1.6780953893        4.1168216908       -0.3561792407
 H         -0.6754766894        2.6815073207       -0.2299194804
 C         -0.6177695888        3.9424028112        1.5136706792
 H         -1.6238322387        4.1130476115        1.9028656793
 H         -0.0242276887        4.8287681012        1.7436394787
 C         -0.0511399988        2.7382259714        2.2698726594
 H         -0.5533002090        1.8264031714        1.9320240198
 H         -0.2814232685        2.8628840218        3.3319739394
 C          1.4647582211        2.5293472712        2.1537341791
 H          1.9828685513        3.4697875412        2.3569186087
 H          1.7598687512        1.8016633814        2.9156791493
 H          0.2172406608        5.5584751004       -0.7214555116
 H          0.2498093904        4.2059177400       -1.8613882211
 H          2.0093426610        4.6149318506        0.5881514683
 H          2.4914066506        4.5672367500       -1.1184207118
 O          2.4319817303        2.1486392799       -1.4682245610
 C          2.7088135501        0.7968463998       -1.5863031106
 O          3.0097815398        0.4307584894       -2.7422625106
 H          0.4696416399       -1.0744069098       -1.3797624395
 C          0.5203729100       -1.9024639296       -0.6817333892
 C          1.7539264100       -2.2817099896       -0.1677139294
 C          1.7946874701       -3.3451969893        0.7241189309
 C          0.6273026301       -3.9743966190        1.1233529214
 C         -0.6030172599       -3.5553463791        0.6494347016
 C         -0.6474093000       -2.5178066893       -0.2684721788
 N         -1.9160826501       -2.0294374493       -0.7120593486
 S         -2.3054513297       -0.6474298190        0.1937103310
 O         -1.5463063797        0.4891139408       -0.2831555095
 O         -2.1765733694       -0.9795172386        1.5893384911
 C         -4.0293312598       -0.4364613189       -0.2115093386
 C         -4.4523710998        0.6913780509       -0.8861724589
 C         -5.7967427498        0.8187228110       -1.2012537986
 C         -6.6875092299       -0.1805510988       -0.8412498381
 C         -6.2463430398       -1.3086953587       -0.1648483678
 C         -4.9049820298       -1.4403467987        0.1553178219
 H         -4.5160417198       -2.2942575986        0.6842611521
 H         -6.9424936999       -2.0834169385        0.1132476626
 H         -7.7323419999       -0.0792056488       -1.0889153879
 H         -6.1416093799        1.6953888308       -1.7256409488
 H         -3.7226726698        1.4421087207       -1.1451593393
 H         -1.8671482202       -1.7293701997       -1.6788444687
 H         -1.5217864199       -4.0066898588        0.9857273219
 H          0.6767387602       -4.7877854888        1.8312010116
 H          2.7410308102       -3.6663925793        1.1281190108
 C          2.9607234000       -1.4778102499       -0.5855468100
 H          3.1431070398       -1.6518408302       -1.6563089599
 C          4.2159622602       -1.8189265998        0.1891445899
 C          5.0794117999       -2.9661034400       -0.2400806800
 C          5.5496265601       -1.5577362101       -0.4413436905
 H          6.3490602603       -1.1843579000        0.1806465592
 H          5.5519330799       -1.1545158904       -1.4437160107
 H          4.7708966997       -3.5256816802       -1.1100617597
 H          5.5613450001       -3.5609738898        0.5208928301
 H          4.1148136905       -1.6187036994        1.2497068598
 O          2.1037063408       -0.1953842590        1.8419061798
