  62
        -98.94559307
 C          2.6492688402        1.1187133892        0.2711114609
 C          2.5261487801        0.3228451699       -0.8939810996
 C          3.2173872796       -0.9720108704       -0.8539950501
 C          3.9448040492       -1.3112511413        0.2260331799
 C          4.7328268286       -2.5813857317        0.4001764193
 C          3.9033568180       -3.7664479716        0.9133390685
 C          2.9262284580       -4.3629288707       -0.1006754520
 H          3.4580065681       -4.5954140104       -1.0236911320
 H          2.5659675975       -5.3058840308        0.3151175875
 C          1.7174036484       -3.4692143600       -0.4142785517
 H          0.7999315182       -4.0622701096       -0.3838924522
 H          1.6200455186       -2.7018650904        0.3580659887
 C          1.7691414290       -2.7873644593       -1.7818207814
 H          0.8796948893       -2.1577311489       -1.8813091412
 H          1.7316068188       -3.5444111189       -2.5683985118
 C          3.0098323494       -1.9107343697       -2.0033286006
 H          3.8896483192       -2.5361885500       -2.1530300908
 H          2.8475073698       -1.3087265992       -2.9005184404
 H          4.6034340176       -4.5489215621        1.2145221183
 H          3.3547183780       -3.4505319519        1.8037918786
 H          5.2068449887       -2.8497426314       -0.5440763107
 H          5.5127209886       -2.3649531124        1.1334197096
 O          4.0641777693       -0.5017216719        1.3123838003
 C          3.3908353398        0.7092818983        1.3777875508
 O          3.5303450199        1.3176903677        2.4587887412
 H          0.3913092497        0.5387808296        1.3846224201
 C         -0.1847367699        1.1783997102        0.7253597604
 C          0.4493543707        2.2407282702        0.0927010610
 C         -0.3025850188        3.0522921910       -0.7461510887
 C         -1.6445198688        2.7874326317       -0.9593098891
 C         -2.2660734794        1.7189724916       -0.3402665098
 C         -1.5260910399        0.9065709309        0.5090520899
 N         -2.1516194205       -0.1765538192        1.1547810893
 S         -2.9844234308       -1.2764358984        0.1933965285
 O         -2.9961816114       -2.5069009188        0.9554029079
 O         -2.4322169705       -1.3506200979       -1.1388008514
 C         -4.6352613205       -0.6111136776        0.1400867085
 C         -5.2454091402       -0.3763657667       -1.0764127315
 C         -6.5310983199        0.1422420538       -1.0918319914
 C         -7.1798335501        0.4147892335        0.1027962286
 C         -6.5541014004        0.1700286225        1.3162957386
 C         -5.2698244506       -0.3497281980        1.3387773385
 H         -4.7487868409       -0.5561734287        2.2586561985
 H         -7.0615951605        0.3836028023        2.2431695886
 H         -8.1789007399        0.8208687139        0.0881954486
 H         -7.0190012597        0.3326100745       -2.0342386614
 H         -4.6980147601       -0.5959878665       -1.9792959915
 H         -1.5428728908       -0.6673589698        1.7941014791
 H         -3.3077438495        1.5032934721       -0.5128272001
 H         -2.2140799184        3.4211228223       -1.6218036389
 H          0.1651347117        3.8850461911       -1.2449095081
 C          1.9226245808        2.4491072895        0.3508381114
 H          2.0450253407        2.8048210989        1.3845819817
 C          2.5644142514        3.4493557797       -0.5883714079
 C          2.5397109919        4.9129995696       -0.2681252871
 C          3.8197604116        4.1425125590       -0.1546409573
 H          4.5941741818        4.3128029990       -0.8873707470
 H          4.1960125013        3.9115176783        0.8315497327
 H          2.4387611924        5.6170717700       -1.0802212368
 H          2.0504091919        5.2170997493        0.6447479829
 H          2.4922745414        3.1473273503       -1.6270061181
 O          1.8749368205        0.6724522907       -1.9119054395
