  62
        -98.93838757
 C         -2.6734531054       -0.9738941167       -0.3456936579
 C         -3.2569197971       -0.1783232537        0.6747623952
 C         -3.5625164963        1.2119410346        0.3256879887
 C         -3.2966704203        1.6591053108       -0.9146114701
 C         -3.5591635637        3.0467007608       -1.4331570396
 C         -2.4519862693        4.0545975073       -1.0948962959
 C         -2.3978038695        4.4933885199        0.3689597774
 H         -1.7335395197        5.3582897149        0.4189884477
 H         -3.3878372029        4.8221608850        0.6868205968
 C         -1.8760916764        3.4186012475        1.3333738540
 H         -1.3465267124        2.6449095817        0.7702822698
 H         -1.1442261893        3.8620732725        2.0129449665
 C         -2.9542925364        2.7616938687        2.1962022902
 H         -3.3832946233        3.5048867867        2.8720669145
 H         -2.4776217407        1.9876437417        2.8035444339
 C         -4.0934488966        2.1090412785        1.4022218267
 H         -4.6796437344        1.4933978583        2.0887664921
 H         -4.7411732823        2.8742689969        0.9752005629
 H         -2.6178392365        4.9407953169       -1.7120260041
 H         -1.4876548723        3.6256590116       -1.3790378475
 H         -4.5126477300        3.4084454751       -1.0474440950
 H         -3.6299841527        2.9647310588       -2.5198770220
 O         -2.7561336673        0.8633697715       -1.8726900817
 C         -2.3923402017       -0.4528193233       -1.6087951384
 O         -1.8507834913       -1.0189856793       -2.5778310025
 O         -3.5163676625       -0.6192072039        1.8263034725
 C         -2.3013806977       -2.3961538983        0.0399073732
 C         -0.9014090501       -2.4032281814        0.6000823014
 C         -0.6179377802       -2.9384128966        1.8502484626
 C          0.6614761900       -2.8659809157        2.3756465872
 C          1.6807718522       -2.2540605720        1.6682967708
 C          1.4071761029       -1.7225527288        0.4160585293
 C          0.1296323648       -1.8051343020       -0.1123091347
 H         -0.0739119880       -1.3804784740       -1.0856068069
 N          2.4397525476       -1.0584941087       -0.2972407907
 S          2.7044734126        0.5303197129        0.2314261647
 O          2.4916439454        0.5886205091        1.6550051368
 O          1.9257717104        1.4439496017       -0.5802863947
 C          4.4372039512        0.7268795870       -0.1335103525
 C          4.8224292194        1.3304230630       -1.3142670800
 C          6.1739941685        1.4335428230       -1.6044671087
 C          7.1111089219        0.9295601871       -0.7156484206
 C          6.7083335631        0.3260295676        0.4664770841
 C          5.3588847319        0.2210747854        0.7622836479
 H          4.9991099060       -0.2314894818        1.6714259277
 H          7.4400054401       -0.0627945235        1.1561649561
 H          8.1619660378        1.0094651826       -0.9449300931
 H          6.4893243786        1.9044170224       -2.5217283926
 H          4.0595711325        1.7145784186       -1.9722823127
 H          2.2184569794       -1.0032858996       -1.2839363912
 H          2.6736580312       -2.1664688982        2.0770316716
 H          0.8628375710       -3.2801015167        3.3518221121
 H         -1.4148005355       -3.3899291335        2.4230450090
 H         -2.9870408113       -2.6528489425        0.8629595297
 C         -2.5182832187       -3.4120977764       -1.0712929370
 C         -1.4032684410       -4.1320963546       -1.7630943477
 C         -2.2837724170       -4.8693977847       -0.8023142091
 H         -2.9900453209       -5.5876024387       -1.1897267093
 H         -1.8621698420       -5.1332670260        0.1559163828
 H         -1.5112458190       -4.3180373748       -2.8207124686
 H         -0.3899985591       -3.9162335177       -1.4625189206
 H         -3.3776020324       -3.1617234894       -1.6846589832
