  62
        -98.94412419
 C         -2.0671999035       -1.3113126149       -0.1236475193
 C         -2.4537124041       -0.2596193663       -0.9893324169
 C         -3.8489918537        0.1899461606       -0.8673145769
 C         -4.6643412806       -0.4105048558        0.0180486785
 C         -6.0877236140       -0.0149833037        0.2813492610
 C         -6.1762412752        1.0182369107        1.4132729739
 C         -5.2142864750        2.1955336134        1.2523110753
 H         -5.3880223389        2.8742771612        2.0901536449
 H         -4.1871987711        1.8335049070        1.3412439387
 C         -5.3668468516        2.9644830836       -0.0675402214
 H         -5.3484450223        4.0350830979        0.1472104397
 H         -6.3352756379        2.7412027525       -0.5167942643
 C         -4.2605416394        2.6969245662       -1.0898621640
 H         -4.3426434250        3.4454623297       -1.8826154114
 H         -3.2838810508        2.8287219981       -0.6164964580
 C         -4.2899701521        1.3166992725       -1.7585370651
 H         -5.2862358086        1.1239334215       -2.1616095999
 H         -3.5799869583        1.3365063791       -2.5905911609
 H         -5.9490426914        0.5180183447        2.3574997061
 H         -7.2018117070        1.3885297083        1.4632817252
 H         -6.5216170898        0.3910823545       -0.6302754345
 H         -6.6445721566       -0.9073570765        0.5720310137
 O         -4.2622367614       -1.4292922507        0.8195296764
 C         -2.9572001943       -1.8882161603        0.7858413747
 O         -2.7145013046       -2.8044362909        1.5962575287
 H          0.9265943536       -0.0253122233       -1.4495555611
 C          0.9903197988        0.0803870329       -0.3784649143
 C          0.2586256970       -0.7634502626        0.4422801330
 C          0.3392765306       -0.5881252055        1.8208489428
 C          1.1307355670        0.4076588348        2.3624478449
 C          1.8559714631        1.2522719569        1.5399130650
 C          1.7748510616        1.0894877665        0.1638356136
 N          2.5230074771        1.9387527670       -0.6747802527
 S          4.1706966990        1.9889507591       -0.3766150114
 O          4.4335116549        2.8735179936        0.7308039586
 O          4.7837630580        2.3513073968       -1.6349771840
 C          4.5856807999        0.3126669728        0.0724874131
 C          4.4646380939       -0.6657120175       -0.8945674356
 C          4.7115388846       -1.9839668600       -0.5492172240
 C          5.0688465006       -2.3004053393        0.7526688450
 C          5.1890514138       -1.3065091481        1.7111708336
 C          4.9418755189        0.0141083825        1.3714688263
 H          5.0201675772        0.8168781243        2.0861270955
 H          5.4682687936       -1.5560177518        2.7221435423
 H          5.2547691616       -3.3286383357        1.0203632908
 H          4.6187227587       -2.7594448800       -1.2925793090
 H          4.1905473682       -0.3836850728       -1.8984833190
 H          2.3385861165        1.7926721772       -1.6567896083
 H          2.4791272462        2.0357131514        1.9402121963
 H          1.1840964574        0.5290751540        3.4336654287
 H         -0.2360214198       -1.2416101181        2.4621861002
 C         -0.6414338597       -1.8405016379       -0.1117844672
 H         -0.6401108796       -2.6789276549        0.5970578964
 C         -0.2094384220       -2.3506908298       -1.4712157606
 C          1.0559318953       -3.1462763795       -1.5817530314
 C         -0.2714523394       -3.8194402992       -1.7569894062
 H         -0.5624195511       -4.1389646656       -2.7465850610
 H         -0.6259421186       -4.4674760622       -0.9688279376
 H          1.6054351245       -3.3330061486       -0.6715323936
 H          1.6778764450       -3.0063979662       -2.4526618807
 H         -0.4597042063       -1.6787390368       -2.2825389528
 O         -1.6863503429        0.2804449078       -1.8288413301
