  62
        -98.94878403
 C         -0.9374768707       -1.2892487935        0.0435550847
 C         -1.9061156454       -1.0375466581        1.0419111857
 C         -2.6349704927        0.2317602244        0.9244668456
 C         -2.3239772580        1.0768541479       -0.0753912098
 C         -3.0171001828        2.3826318869       -0.3359567937
 C         -4.1935364889        2.2040444272       -1.3056477086
 C         -5.1359719496        1.0620361986       -0.9259696080
 H         -5.9448915740        1.0494933092       -1.6595007450
 H         -4.6019875788        0.1136692465       -1.0183964657
 C         -5.7287955286        1.1716381856        0.4857359261
 H         -6.7965688448        0.9480918606        0.4362092360
 H         -5.6288972520        2.1939262658        0.8524104137
 C         -5.1201756636        0.2073554609        1.5057962440
 H         -5.7503549215        0.2144013520        2.3992339252
 H         -5.1347080665       -0.8088318587        1.1036026738
 C         -3.6881158596        0.5253619202        1.9554317031
 H         -3.6258028773        1.5646839906        2.2860042503
 H         -3.4565759019       -0.1170642299        2.8105389530
 H         -3.7933379911        2.0005354810       -2.3012643040
 H         -4.7523602379        3.1407407849       -1.3469359022
 H         -3.3686540622        2.7945987262        0.6081976670
 H         -2.2962648226        3.0745759575       -0.7739833629
 O         -1.3684979820        0.8128523692       -1.0015415353
 C         -0.6493102168       -0.3725163784       -0.9678092461
 O          0.1982985732       -0.4877208393       -1.8716215513
 H          1.0897838324       -0.5010966777        1.2756301528
 C          1.7955421188       -1.1751465469        0.8127550804
 C          1.3401360972       -2.3064178737        0.1492420687
 C          2.2772842761       -3.1636113998       -0.4164186385
 C          3.6293742008       -2.8833682167       -0.3279009651
 C          4.0760455171       -1.7400119531        0.3088096966
 C          3.1468295946       -0.8784116435        0.8806322842
 N          3.5570577470        0.2958059023        1.5332574767
 S          2.6570326462        1.6921963036        1.4048949318
 O          3.5761852881        2.7381972434        1.8085208966
 O          1.4523143300        1.5940672804        2.1931372663
 C          2.2458973436        1.9292129419       -0.3150865321
 C          1.0945237864        2.6320792508       -0.6029330331
 C          0.7819555570        2.9006715600       -1.9248363144
 C          1.6202106899        2.4579987182       -2.9342087433
 C          2.7736338960        1.7545521511       -2.6298566816
 C          3.0974824983        1.4926079297       -1.3089726317
 H          3.9903813987        0.9445808780       -1.0566773755
 H          3.4197702329        1.4022242189       -3.4176801685
 H          1.3673636996        2.6555892856       -3.9639657275
 H         -0.1199672357        3.4414641945       -2.1639660016
 H          0.4586334664        2.9385703721        0.2136708337
 H          4.5472014962        0.4889908121        1.4927772200
 H          5.1300648339       -1.5146585595        0.3670511472
 H          4.3452185912       -3.5587708231       -0.7707763671
 H          1.9466194640       -4.0522427561       -0.9287006021
 C         -0.1431966646       -2.5788448359        0.0945177335
 H         -0.4362606886       -3.0679158072        1.0365923004
 C         -0.5348925109       -3.4786923536       -1.0620222661
 C         -0.5802754229       -4.9673252651       -0.8930328832
 C         -1.8542109405       -4.1873105083       -1.0080028423
 H         -2.4343131465       -4.2704633447       -1.9147874371
 H         -2.4520483595       -4.0483004070       -0.1187534723
 H         -0.2872953720       -5.5899468251       -1.7250174986
 H         -0.3229224152       -5.3706846332        0.0748197303
 H         -0.2201393645       -3.0792737538       -2.0196879605
 O         -2.1491451974       -1.8374444490        1.9877943117
