  62
        -98.94121505
 C         -2.5997610614       -0.7883073505       -0.4696667457
 C         -3.2648294600       -0.0020460709        0.5090019227
 C         -3.4179511281        1.4240777044        0.2097066116
 C         -2.9630471996        1.9094317663       -0.9591811860
 C         -3.0412573286        3.3397982854       -1.4177103898
 C         -1.8969711887        4.2160269482       -0.8892640378
 C         -1.9857830706        4.5728622366        0.5951057097
 H         -1.2575697660        5.3655531215        0.7774361162
 H         -2.9740327930        4.9795088212        0.8127566851
 C         -1.6868953528        3.4050400181        1.5461073384
 H         -1.1613491295        2.6142313395        1.0030759765
 H         -1.0097487749        3.7417677538        2.3349028072
 C         -2.9187102932        2.8118043892        2.2315293587
 H         -2.5918533980        1.9674442012        2.8441560817
 H         -3.3618363322        3.5585131562        2.8942668111
 C         -4.0024158668        2.3087853100        1.2686738598
 H         -4.7195921267        1.7151074047        1.8406042615
 H         -4.5244937190        3.1512758160        0.8159774700
 H         -0.9483781190        3.7082079198       -1.0827334131
 H         -1.9025689058        5.1440988831       -1.4657059454
 H         -2.9864593358        3.3214856690       -2.5082503725
 H         -3.9986038195        3.7701157327       -1.1229217702
 O         -2.3707112703        1.1198001324       -1.8903471417
 C         -2.1252561185       -0.2256848186       -1.6543389195
 O         -1.4949390064       -0.7768589145       -2.5811908676
 O         -3.7104675023       -0.4779606281        1.5871267807
 C         -2.3544554505       -2.2437470065       -0.1029002393
 C         -1.0016177868       -2.3594668171        0.5600550248
 C         -0.8658008654       -2.8429199140        1.8554987141
 C          0.3720033883       -2.8640431022        2.4758723584
 C          1.4957283815       -2.3897997369        1.8229312851
 C          1.3681399506       -1.9096192599        0.5275206561
 C          0.1340584651       -1.9129884598       -0.1010174920
 H          0.0474191192       -1.5264479671       -1.1065022249
 N          2.5071612622       -1.3616666283       -0.1239771401
 S          2.7905293569        0.2399750615        0.3579532200
 O          2.7025242479        0.3044624714        1.7943502213
 O          1.9291235924        1.1408830783       -0.3810503088
 C          4.4830124121        0.4567699778       -0.1560261767
 C          5.4862041974       -0.0188077922        0.6659978859
 C          6.8039572915        0.1096789454        0.2578598739
 C          7.0947034638        0.7063577050       -0.9600545660
 C          6.0767478082        1.1786147734       -1.7744176523
 C          4.7562950635        1.0521131209       -1.3718244621
 H          3.9335832602        1.4124850260       -1.9688312762
 H          6.3048644018        1.6441911447       -2.7197724800
 H          8.1210246340        0.8062170501       -1.2761475900
 H          7.5983129916       -0.2546050937        0.8890881311
 H          5.2117470959       -0.4670103096        1.6063424017
 H          2.3644411155       -1.3383858710       -1.1269490973
 H          2.4582905732       -2.3642386867        2.3059746516
 H          0.4585142707       -3.2379480249        3.4847180458
 H         -1.7443228472       -3.1774279207        2.3876475391
 H         -3.1168753237       -2.4868398174        0.6496100703
 C         -2.4885302835       -3.2173265588       -1.2553678055
 C         -2.7686571571       -4.6587647989       -0.9569080532
 C         -3.8320962878       -3.7998322248       -1.5709593914
 H         -4.0927821980       -3.9563716193       -2.6067258426
 H         -4.6646845776       -3.4977576803       -0.9524924623
 H         -2.2971307107       -5.4108883293       -1.5702612011
 H         -2.8823772071       -4.9422907835        0.0783268707
 H         -1.8373787667       -2.9913570043       -2.0893051690
