  62
        -98.94454870
 C         -2.6162678500       -1.2232733469        0.1415335191
 C         -2.6409780036       -0.2805494367       -0.9146408526
 C         -3.4347533081        0.9344549066       -0.6751139107
 C         -4.0850502477        1.0869911623        0.4919287418
 C         -4.8739820645        2.3006040646        0.8868725536
 C         -3.9959231229        3.3146058528        1.6334771554
 C         -2.6737036263        3.6268575148        0.9317627771
 H         -2.1567797469        4.3798440919        1.5309076765
 H         -2.0429465618        2.7340281519        0.9342140796
 C         -2.8227125327        4.1363920023       -0.5086026567
 H         -3.8405980311        4.4921884369       -0.6729402930
 H         -2.1532595907        4.9878232938       -0.6483286329
 C         -2.4644504630        3.1103289936       -1.5854016021
 H         -1.4806640135        2.6832447972       -1.3687418911
 H         -2.3872264127        3.6347157496       -2.5419468184
 C         -3.4656484943        1.9626213055       -1.7708828169
 H         -4.4717602964        2.3690797114       -1.8909967907
 H         -3.1965823115        1.4327537385       -2.6892980597
 H         -4.5663120686        4.2363279599        1.7613027869
 H         -3.7690729322        2.9140715656        2.6241135310
 H         -5.2983005657        2.7583301880       -0.0044867082
 H         -5.6853393652        1.9836759974        1.5441883139
 O         -4.0561187033        0.1537792969        1.4759615295
 C         -3.3145329420       -1.0048994343        1.3344715385
 O         -3.3612680095       -1.7626556238        2.3236517759
 H         -0.0434106271       -1.2097265234       -1.5019484455
 C          0.4050206702       -1.5061167026       -0.5654396584
 C         -0.3568153280       -2.1983473447        0.3653105763
 C          0.2267129395       -2.5367413500        1.5809164847
 C          1.5379367485       -2.1887130686        1.8544234634
 C          2.2897761799       -1.4888758986        0.9273643782
 C          1.7116250794       -1.1375164225       -0.2850238831
 N          2.4591635039       -0.3938679824       -1.2222467325
 S          3.0007142651        1.1067636627       -0.6849218088
 O          2.1413947614        1.6404283131        0.3479564598
 O          3.1546992289        1.9133785594       -1.8760970037
 C          4.6124617463        0.7499656339       -0.0172749462
 C          4.9019868558        1.0655027719        1.2955906340
 C          6.1653434105        0.7798874250        1.7901370681
 C          7.1110979743        0.1879452364        0.9670615003
 C          6.8049880799       -0.1205245243       -0.3502553291
 C          5.5444880297        0.1630736275       -0.8509310721
 H          5.2656643104       -0.0567902596       -1.8678812618
 H          7.5431853741       -0.5809915122       -0.9868456941
 H          8.0927423101       -0.0341080611        1.3547636991
 H          6.4050879906        1.0194182426        2.8137036006
 H          4.1319331559        1.5191085155        1.8991412260
 H          1.9712232503       -0.2794264021       -2.1005879488
 H          3.3077663180       -1.2041591664        1.1386397329
 H          1.9771780969       -2.4589599238        2.8026284262
 H         -0.3650482276       -3.0561097881        2.3209896519
 C         -1.8080000344       -2.5132651825        0.0905417171
 H         -2.1807519324       -3.1280328670        0.9202984047
 C         -1.9931706827       -3.2873495997       -1.1991051517
 C         -1.6380789234       -4.7425350296       -1.2261452440
 C         -3.0748261513       -4.3201361189       -1.2819139541
 H         -3.6113964706       -4.4292382989       -2.2124348382
 H         -3.6871874164       -4.4739759089       -0.4051685494
 H         -1.1855489804       -5.1452764064       -2.1191697659
 H         -1.2759580813       -5.1850176612       -0.3105076300
 H         -1.7995453511       -2.7035776747       -2.0888417638
 O         -2.0414564360       -0.4205211856       -2.0154746505
