  62
        -98.93568839
 C         -2.3318195720       -1.3238999552        0.2248787691
 C         -2.4828699227       -0.3398899349       -0.7786037865
 C         -3.3583971963        0.8035483331       -0.4532962125
 C         -3.9703196206        0.8400092969        0.7440366438
 C         -4.8946873274        1.8918564578        1.3046348013
 C         -5.9582285459        2.4619979434        0.3538153905
 C         -5.6853904885        3.9064329346       -0.0703919350
 H         -6.6322122636        4.3715985045       -0.3534526439
 H         -5.2991237206        4.4541661059        0.7918520520
 C         -4.7218448514        4.0696805948       -1.2446458123
 H         -5.2142640274        3.7461819370       -2.1641423940
 H         -4.5061628602        5.1356099743       -1.3491905027
 C         -3.3993476754        3.3119435602       -1.1136474560
 H         -2.6682692292        3.7994534789       -1.7619555962
 H         -3.0182690364        3.3836580841       -0.0952889780
 C         -3.4917429593        1.8380835782       -1.5370140970
 H         -2.6852263466        1.6050919559       -2.2393049204
 H         -4.4242635067        1.6635930655       -2.0808523655
 H         -6.0565456165        1.8208008510       -0.5205299918
 H         -6.9151698830        2.4417663817        0.8778866775
 H         -5.3798956520        1.4134858473        2.1586805183
 H         -4.2864972481        2.7048216832        1.7101110740
 O         -3.7901358858       -0.1341425187        1.6838962661
 C         -2.9669192112       -1.2224844345        1.4600848585
 O         -2.8805175764       -2.0128220223        2.4230313712
 O         -1.9077898259       -0.4033399739       -1.8960210291
 C         -1.4345705209       -2.5221111571       -0.0206566987
 C         -0.0306922516       -2.0731300006       -0.3510233743
 C          0.7465645028       -2.6755013317       -1.3317615697
 C          2.0330783742       -2.2285676905       -1.5794477898
 C          2.5716643761       -1.1768033420       -0.8619076537
 C          1.8095236632       -0.5770702604        0.1322626733
 C          0.5255523796       -1.0349637122        0.3857987124
 H         -0.0651424348       -0.5674880360        1.1652202928
 N          2.3365773307        0.5039801158        0.8583632609
 S          3.8833704440        0.3792012611        1.4954129231
 O          4.2245180713       -0.9918398411        1.7965833723
 O          3.9080290013        1.3063011233        2.6060183043
 C          4.9303694332        1.0006844778        0.1963932184
 C          4.6574911408        2.2547136905       -0.3139563288
 C          5.4651328265        2.7571468428       -1.3215337391
 C          6.5276782703        2.0028078016       -1.7967902224
 C          6.7908706158        0.7472099019       -1.2711281805
 C          5.9859600072        0.2381541828       -0.2636865067
 H          6.1486081309       -0.7352120644        0.1711124082
 H          7.6175081676        0.1628061600       -1.6418932121
 H          7.1540584283        2.3963325466       -2.5816927217
 H          5.2631199472        3.7331205350       -1.7327109710
 H          3.8242282586        2.8094613658        0.0842291635
 H          1.6976382081        0.8902280561        1.5375222077
 H          3.5691827381       -0.8200715483       -1.0593158625
 H          2.6231905561       -2.7026390431       -2.3487560006
 H          0.3433267365       -3.4932204077       -1.9060802500
 H         -1.3981045872       -3.0749028788        0.9303555617
 C         -2.0444019663       -3.4171070058       -1.0804659458
 C         -1.8364205823       -4.9001691962       -1.0339598528
 C         -3.1758084087       -4.3203307647       -0.6948318459
 H         -3.9900031212       -4.4545140639       -1.3910119385
 H         -3.4846477342       -4.3109164825        0.3407709826
 H         -1.7343177675       -5.4363561241       -1.9654132934
 H         -1.2389137367       -5.2972415228       -0.2271245828
 H         -2.0967749111       -2.9344500374       -2.0495177071
