  62
        -98.94915432
 C         -2.0854057746       -0.4050236910        0.5550725431
 C         -1.3999216725        0.5740119874        1.3131892691
 C         -1.6488099720        1.9732366247        0.9485415349
 C         -2.4826553530        2.2463355656       -0.0707365065
 C         -2.8341536175        3.6251749799       -0.5489518623
 C         -1.9117840389        4.0901435201       -1.6829102143
 C         -0.4226104425        3.9121394831       -1.3864265501
 H         -0.1814387856        2.8466827592       -1.3517748298
 H          0.1287779443        4.3303316339       -2.2322458717
 C          0.0541437730        4.5787381261       -0.0884243375
 H          0.9999968870        5.0869817854       -0.2880808213
 H         -0.6632040259        5.3375215964        0.2280712023
 C          0.3093820608        3.5999745032        1.0593669706
 H          0.9081767855        2.7666474576        0.6820970303
 H          0.8985912865        4.1136906048        1.8241111140
 C         -0.9421945595        3.0342430418        1.7442911835
 H         -1.6246470778        3.8494298238        1.9949171492
 H         -0.6272185966        2.5524787690        2.6747496113
 H         -2.1503786617        3.5175650684       -2.5822891050
 H         -2.1203870640        5.1430391890       -1.8846242637
 H         -3.8618703811        3.6052546472       -0.9168400414
 H         -2.7726831464        4.3175318035        0.2887431787
 O         -3.0963311612        1.2812233492       -0.8009725973
 C         -2.8852627630       -0.0644278059       -0.5353439242
 O         -3.4716583002       -0.8339548587       -1.3208695856
 O         -0.6201762048        0.2898230431        2.2634959186
 C         -1.8354034088       -1.8739892507        0.8650472883
 C         -0.9959622448       -2.4310951900       -0.2582541686
 C         -1.4092656934       -3.4277340016       -1.1303792186
 C         -0.6027411238       -3.7936831302       -2.1955366511
 C          0.6062154729       -3.1632026582       -2.4241196987
 C          1.0343325758       -2.1711998258       -1.5462654538
 C          0.2488929690       -1.8451057904       -0.4554332998
 H          0.5793958217       -1.0802350768        0.2280463538
 N          2.2520658003       -1.5079881653       -1.7425635892
 S          2.4917393796        0.0785872340       -1.2526480027
 O          1.2545832220        0.8142839557       -1.1563552511
 O          3.4663438518        0.5922012570       -2.1939913376
 C          3.2895489345       -0.1000567044        0.3302832380
 C          4.5966709173       -0.5509147529        0.3159016328
 C          5.2658543741       -0.7206549545        1.5157749769
 C          4.6202081121       -0.4369852912        2.7104642403
 C          3.3112133978        0.0166289708        2.7090959165
 C          2.6350895012        0.1881703163        1.5099454141
 H          1.6113562410        0.5308650419        1.4984707064
 H          2.7998599787        0.2369694852        3.6325872847
 H          5.1388933030       -0.5686344326        3.6470262888
 H          6.2849713967       -1.0723828854        1.5175131261
 H          5.0634787997       -0.7453613782       -0.6353549627
 H          2.7103674405       -1.7048832001       -2.6194487256
 H          1.2135713970       -3.4283829898       -3.2762601982
 H         -0.9333651697       -4.5668569737       -2.8727713907
 H         -2.3666870629       -3.9020628064       -0.9917657616
 H         -1.2281180106       -1.8795238624        1.7815974248
 C         -3.1190349291       -2.6302968656        1.1213675648
 C         -3.0780017487       -3.9208443998        1.8824807846
 C         -3.6614434959       -2.6951380808        2.5166481246
 H         -4.7309002070       -2.6433042214        2.6552453263
 H         -3.0967957990       -2.2023717155        3.2945664953
 H         -3.7478480364       -4.7144579798        1.5885322318
 H         -2.1153503049       -4.2626399407        2.2311991695
 H         -3.8344518254       -2.5345741029        0.3134233799
