  62
        -98.93080248
 C         -2.3915002819       -1.1138692452       -0.5528802922
 C         -3.5106978636       -0.9118842769        0.2942899792
 C         -4.3262169404        0.2917247940        0.0605269213
 C         -3.9772690028        1.1395681275       -0.9245822754
 C         -4.6269549600        2.4129213739       -1.4244188095
 C         -5.7088570846        3.1102120436       -0.6040378014
 C         -5.2198904226        3.7251730430        0.7069476773
 H         -6.0879004441        4.1024677231        1.2518578318
 H         -4.5781108518        4.5780854539        0.4721717243
 C         -4.4282309912        2.7915282325        1.6193869733
 H         -4.1375507753        3.3593248315        2.5074281119
 H         -3.5069721862        2.4830940237        1.1207021440
 C         -5.1771545731        1.5464036191        2.0902447900
 H         -6.1178729323        1.8387056093        2.5608013133
 H         -4.5599308385        1.0592772367        2.8500009623
 C         -5.4776966482        0.5025265318        1.0008856541
 H         -6.3813308862        0.7536578646        0.4505682651
 H         -5.6498930051       -0.4589478769        1.4932947503
 H         -6.5380525944        2.4330612385       -0.4219006864
 H         -6.0948358778        3.9229579568       -1.2253524515
 H         -5.0428375874        2.1665280587       -2.4076655449
 H         -3.8065403891        3.1146496393       -1.6053429643
 O         -2.8921297942        0.9043056697       -1.7171686875
 C         -2.0715632668       -0.2030372860       -1.5578527273
 O         -1.1216372293       -0.2334412024       -2.3636465667
 O         -3.8276379542       -1.7202365071        1.2073719570
 C         -1.5705669970       -2.3681413386       -0.3098462156
 C         -0.3784464288       -2.0831973907        0.5671594477
 C         -0.1509539140       -2.8132506188        1.7272409238
 C          0.9542463880       -2.5513172430        2.5189753194
 C          1.8540416481       -1.5598610939        2.1711386843
 C          1.6360537306       -0.8259446349        1.0121983189
 C          0.5260420100       -1.0877236263        0.2225740946
 H          0.3617649506       -0.5170277100       -0.6803891076
 N          2.5453760671        0.1951115985        0.6437701759
 S          4.1039921508       -0.3400973981        0.2565220412
 O          4.0689303525       -1.1535898993       -0.9405015551
 O          4.6777566515       -0.9590701612        1.4235107798
 C          4.9180341119        1.2092966967       -0.0709565964
 C          5.3536495348        1.9641893363        1.0010796710
 C          5.9642656842        3.1836424400        0.7564904584
 C          6.1265458995        3.6256781419       -0.5482455974
 C          5.6836676558        2.8565997651       -1.6136557448
 C          5.0706250117        1.6362710506       -1.3756734310
 H          4.7174012217        1.0025918710       -2.1737667832
 H          5.8125708421        3.2014475576       -2.6270576529
 H          6.6032964087        4.5746293968       -0.7367265450
 H          6.3113853668        3.7844175161        1.5815796478
 H          5.2133984898        1.5765634540        1.9964038952
 H          2.1925823565        0.7059223957       -0.1570830872
 H          2.7264782796       -1.3585922214        2.7702430524
 H          1.1172973085       -3.1254920062        3.4184670133
 H         -0.8524013722       -3.5841821140        2.0116019134
 H         -2.2435775008       -3.0315946595        0.2559189383
 C         -1.2010735188       -3.0937552646       -1.5974979722
 C          0.1950243229       -3.2227664407       -2.1219984219
 C         -0.4950354983       -4.4161133613       -1.5366489265
 H         -0.8156635042       -5.2081896505       -2.1960865613
 H         -0.1614566819       -4.7543979129       -0.5669127876
 H          0.3306458404       -3.1719714487       -3.1918951175
 H          1.0068680787       -2.7771720562       -1.5674157826
 H         -1.9792923162       -2.9962401722       -2.3482723235
