  62
        -98.93982843
 C         -2.5219181730       -1.2635122394       -0.1976546937
 C         -2.2016621176       -0.0701807794       -0.8905276070
 C         -3.2900668474        0.9106022529       -1.0043369566
 C         -4.5013139388        0.6337958491       -0.4892493981
 C         -5.7083422321        1.5310874058       -0.5300983975
 C         -5.7387203504        2.5802577238        0.5900302756
 C         -4.7386150537        3.7270014776        0.4364106402
 H         -4.8402213453        4.1662249005       -0.5563486656
 H         -5.0164975219        4.4935539638        1.1623916809
 C         -3.2748688658        3.3301279321        0.6766213073
 H         -2.7964691154        4.0708333950        1.3213317982
 H         -3.2353622572        2.3746952233        1.2052954923
 C         -2.4301912223        3.2250959953       -0.5935172154
 H         -2.3468707700        4.2086444642       -1.0617131891
 H         -1.4237457519        2.9002035815       -0.3139279185
 C         -2.9738666358        2.2345480896       -1.6314845699
 H         -3.8561166880        2.6466261255       -2.1211034610
 H         -2.1982257743        2.0693728097       -2.3836876047
 H         -5.5704347575        2.0763620719        1.5444657554
 H         -6.7446891865        3.0053667294        0.6106675511
 H         -5.7631309638        2.0283613182       -1.4986470629
 H         -6.5809713162        0.8839699603       -0.4200161237
 O         -4.7771182487       -0.5399879497        0.1391349848
 C         -3.7936452187       -1.4964425546        0.3286736775
 O         -4.1720443402       -2.4996489731        0.9669519045
 H          1.1645523928       -1.5418570671       -0.4182215239
 C          0.8430795044       -1.3831828787        0.5966727790
 C         -0.4366335587       -1.7330577494        0.9964438867
 C         -0.8181797108       -1.4939273995        2.3152583803
 C          0.0582493231       -0.9117259714        3.2091838058
 C          1.3294532349       -0.5456334330        2.8016090662
 C          1.7217045736       -0.7825146875        1.4898494681
 N          3.0257534041       -0.4521769539        1.0719282083
 S          3.2376701394        0.3364713245       -0.4099274166
 O          2.4670424972        1.5593792753       -0.4388231602
 O          3.0259062702       -0.6020135569       -1.4808617280
 C          4.9768262440        0.7202331607       -0.2937947285
 C          5.8913491538       -0.2919981471       -0.5152517807
 C          7.2433359586       -0.0105335515       -0.4012627792
 C          7.6567687652        1.2713132710       -0.0693219657
 C          6.7278026939        2.2775557042        0.1477652021
 C          5.3738131850        2.0017591423        0.0369333874
 H          4.6155201058        2.7532487778        0.1886327528
 H          7.0518193160        3.2739141436        0.4020503988
 H          8.7096664019        1.4880653161        0.0180426062
 H          7.9687495238       -0.7895411644       -0.5720205737
 H          5.5230711683       -1.2695066933       -0.7791790572
 H          3.5261748080        0.0579279889        1.7893462336
 H          2.0134788032       -0.0807639294        3.4959276844
 H         -0.2509697037       -0.7324283515        4.2280202768
 H         -1.8192205379       -1.7660834536        2.6226351593
 C         -1.4608405108       -2.3225926473        0.0564020999
 H         -1.9723040548       -3.1412757277        0.5822697916
 C         -0.8813940263       -2.8614620703       -1.2327152351
 C         -0.1791620251       -4.1848809515       -1.2261867772
 C         -1.5216702374       -4.0516870628       -1.8786820723
 H         -1.5785956740       -4.0832491579       -2.9564166684
 H         -2.3772645739       -4.4869884132       -1.3827795332
 H          0.6900505279       -4.3073119567       -1.8543169148
 H         -0.1229938389       -4.7137026219       -0.2866092666
 H         -0.4989914843       -2.0868615204       -1.8868113049
 O         -1.0736330989        0.1728128414       -1.3939717553
