  62
        -98.93910565
 C         -2.4779635435       -1.0346544392        0.3760465660
 C         -2.6837857479        0.1479254291        1.1351463178
 C         -3.9620582439        0.8377308074        0.9356195350
 C         -4.8726509707        0.3184721256        0.0926990697
 C         -6.2357900031        0.8839817343       -0.2003023912
 C         -6.2380839740        1.9860293683       -1.2685127046
 C         -5.6516107762        3.3257267894       -0.8217940569
 H         -5.9144007288        4.0609620327       -1.5848686414
 H         -6.1273396671        3.6375123233        0.1084743527
 C         -4.1264955490        3.3221045537       -0.6458477664
 H         -3.7014931785        2.4535358581       -1.1545880702
 H         -3.7022295316        4.2092938647       -1.1213183513
 C         -3.6554864961        3.3202218602        0.8086963223
 H         -3.9586527650        4.2506186637        1.2941694273
 H         -2.5629889087        3.2771007075        0.8153888746
 C         -4.1795743351        2.1423466217        1.6406258257
 H         -3.6210278022        2.1098539971        2.5794028010
 H         -5.2367072352        2.2813966546        1.8663668931
 H         -7.2765989312        2.1493477883       -1.5653192110
 H         -5.6944209242        1.6244444241       -2.1442508539
 H         -6.6784357694        1.2663328825        0.7198512484
 H         -6.8452458721        0.0528483393       -0.5612924330
 O         -4.6527933808       -0.8314939140       -0.5938184102
 C         -3.4525376343       -1.5225289268       -0.4953165064
 O         -3.4090224686       -2.5353659980       -1.2205096114
 O         -1.8383667412        0.6013632980        1.9535553284
 C         -1.1439900099       -1.7372874624        0.5606256240
 C         -0.1826324571       -1.4035207763       -0.5558284962
 C         -0.3901476959       -1.8513189926       -1.8568716428
 C          0.5208839815       -1.5502309950       -2.8523952062
 C          1.6601357455       -0.8170225732       -2.5704686616
 C          1.8705472133       -0.3552914269       -1.2765858094
 C          0.9462906260       -0.6448848980       -0.2822275430
 H          1.1186624045       -0.2712772927        0.7170560839
 N          3.0030505420        0.4127875008       -0.9634223657
 S          3.7162152327        0.2014237303        0.5530232405
 O          3.7440743830       -1.2032887299        0.8928303074
 O          3.0696695225        1.0757765701        1.4989940942
 C          5.3672049983        0.7883980093        0.2210519636
 C          6.3526945272       -0.1218016904       -0.1119944700
 C          7.6259704157        0.3441231701       -0.3997158872
 C          7.8899785265        1.7047765372       -0.3529174269
 C          6.8909879112        2.6060023177       -0.0156443488
 C          5.6160289611        2.1468921083        0.2747099555
 H          4.8111179101        2.8075880399        0.5519371477
 H          7.1007501251        3.6627273687        0.0233223361
 H          8.8814340297        2.0650722469       -0.5774377380
 H          8.4056211210       -0.3541017885       -0.6582370394
 H          6.1032426119       -1.1706187022       -0.1267340804
 H          3.6891319029        0.4250277547       -1.7057307304
 H          2.3767361136       -0.5960465713       -3.3470235874
 H          0.3481287892       -1.9022696132       -3.8583220590
 H         -1.2769178805       -2.4242211013       -2.0792811521
 H         -0.7258946737       -1.3162832831        1.4859870100
 C         -1.2622783859       -3.2393850674        0.7329036470
 C         -0.1008861504       -3.9873675570        1.3133973040
 C         -1.3573510074       -3.8150187916        2.1121382110
 H         -1.9916730374       -4.6746178553        2.2683687404
 H         -1.3420507455       -3.1258954502        2.9442495935
 H          0.1285774529       -4.9663977965        0.9216088824
 H          0.7696890222       -3.4141170673        1.5987163405
 H         -1.8341939097       -3.7215306122       -0.0488373317
