  62
        -98.94554225
 C          2.4992181508        1.1820107879       -0.0032218284
 C          3.1646812109        0.3600248750        0.9370260187
 C          3.7944804740       -0.8501106014        0.3985160957
 C          3.7138796462       -1.1144293729       -0.9184640269
 C          4.3148937553       -2.3021116289       -1.6200236170
 C          3.4381200912       -3.5610744754       -1.5701553510
 C          3.3723931197       -4.2540308065       -0.2084666089
 H          2.9058681454       -5.2282583615       -0.3671676216
 H          4.3842454395       -4.4317475996        0.1571296974
 C          2.5669722566       -3.4905930880        0.8525233408
 H          1.8954589092       -4.1818222829        1.3677073714
 H          1.9350265203       -2.7447021960        0.3623398224
 C          3.4192841689       -2.8027838220        1.9198073746
 H          2.7512101734       -2.2666125634        2.5990496036
 H          3.9540728656       -3.5570089249        2.5010167344
 C          4.4381314215       -1.7981376637        1.3651258466
 H          4.8281476409       -1.2100235400        2.1993727625
 H          5.2649899566       -2.3247009666        0.8898239460
 H          3.8435864209       -4.2703597912       -2.2953229495
 H          2.4277575894       -3.2971376449       -1.8932769942
 H          4.4425748776       -2.0136005205       -2.6654729140
 H          5.2951649472       -2.5222467356       -1.1966447822
 O          3.0673158860       -0.2973339310       -1.7912798300
 C          2.4170845549        0.8494951230       -1.3558131729
 O          1.8260324654        1.4747309715       -2.2557044156
 H          0.3208997424        0.3913975925        1.3352574598
 C         -0.2933816789        1.0985847056        0.7901945826
 C          0.2969827097        2.2484333419        0.2778619713
 C         -0.5003670057        3.1463373348       -0.4176855715
 C         -1.8469411764        2.8843312183       -0.6074836754
 C         -2.4264734456        1.7340627319       -0.1051711269
 C         -1.6392105600        0.8330629928        0.6007052625
 N         -2.2222092637       -0.3398394508        1.1220028998
 S         -2.9610856531       -1.3671574710        0.0125564652
 O         -2.9122644141       -2.6792497434        0.6212093034
 O         -2.3681651309       -1.2445475629       -1.2997497422
 C         -4.6497601180       -0.8046080077       -0.0174499226
 C         -5.2169906610       -0.3878792048       -1.2055557741
 C         -6.5347230279        0.0432189125       -1.2033197297
 C         -7.2570430594        0.0492186241       -0.0198482104
 C         -6.6728174045       -0.3746363320        1.1647048125
 C         -5.3566542926       -0.8078807130        1.1693118088
 H         -4.8656722420       -1.1494297601        2.0651834093
 H         -7.2378488654       -0.3686221183        2.0827781329
 H         -8.2815399385        0.3863739825       -0.0209307490
 H         -6.9902590746        0.3728911133       -2.1232280480
 H         -4.6135102870       -0.4044087869       -2.0992526643
 H         -1.5890780441       -0.8700759249        1.7045201023
 H         -3.4727531257        1.5246344990       -0.2572972506
 H         -2.4533237143        3.5868018165       -1.1585487246
 H         -0.0656230349        4.0442185617       -0.8245115897
 C          1.7805972438        2.4259161851        0.4907011418
 H          1.9683439426        2.4587345144        1.5742586782
 C          2.3505031731        3.6765278820       -0.1413315678
 C          2.2256311693        4.9941389193        0.5619078698
 C          3.5578548047        4.3139618730        0.4760585513
 H          4.3108718612        4.7296279214       -0.1763941193
 H          3.9591885493        3.8565144462        1.3686609146
 H          1.7225826903        5.0040696814        1.5168694866
 H          2.0655868875        5.8817779582       -0.0309818551
 H          2.2909792224        3.6626217908       -1.2234931704
 O          3.2224834298        0.6212222712        2.1694710629
