  62
        -98.93790582
 C          2.3201658766       -1.2859388033        0.0920810190
 C          3.3927193529       -0.9463912328       -0.7710059021
 C          4.3112541126        0.0973686147       -0.2949056956
 C          4.0850083292        0.6704875955        0.9010766688
 C          4.8761228044        1.8040924210        1.4893386217
 C          4.4687266637        3.1332326930        0.8217808391
 C          5.5765776743        3.7909759498       -0.0016413304
 H          5.1162289579        4.5872506428       -0.5904490098
 H          6.2940209492        4.2562172812        0.6775914483
 C          6.3535733871        2.8619067483       -0.9392890438
 H          7.0969237115        2.3030974249       -0.3688854885
 H          6.9073618247        3.5001855430       -1.6309463022
 C          5.5104157467        1.8704731732       -1.7514868167
 H          4.4898981188        2.2368017281       -1.8659921065
 H          5.9381427246        1.8023633473       -2.7537474739
 C          5.4770649700        0.4403466670       -1.1807650043
 H          5.4119768715       -0.2661307802       -2.0133616387
 H          6.4108001003        0.2374119087       -0.6492910316
 H          3.6009886791        2.9451482465        0.1854388036
 H          4.1455898698        3.8405358404        1.5872578320
 H          5.9396039494        1.6185488033        1.3558864789
 H          4.6570902187        1.8329394775        2.5569446919
 O          3.0407809596        0.3255211343        1.6974386989
 C          2.1317776349       -0.6524741842        1.3199934970
 O          1.2353639718       -0.8564871922        2.1621702583
 O          3.5756484361       -1.4979526279       -1.8888076797
 C          1.3411489308       -2.3496294633       -0.3800917834
 C          0.0341248903       -1.6719295348       -0.7091510950
 C         -0.1443447736       -1.1039971479       -1.9676003286
 C         -1.3033174906       -0.4153857584       -2.2729015355
 C         -2.3028839214       -0.2666169459       -1.3268680385
 C         -2.1252259448       -0.8120211213       -0.0630818365
 C         -0.9723484062       -1.5269857848        0.2330392014
 H         -0.8416552442       -1.9333781902        1.2234651730
 N         -3.1252107745       -0.6472060780        0.9122503572
 S         -3.7214274291        0.9037251068        1.1613370162
 O         -2.7516501781        1.9160569828        0.8112043232
 O         -4.2015681588        0.9131753240        2.5261891244
 C         -5.1213082451        0.9910624031        0.0619988994
 C         -6.0983149189        0.0212612306        0.1756116601
 C         -7.1972242289        0.0762110739       -0.6666116834
 C         -7.3022404878        1.0960266951       -1.6008376507
 C         -6.3151322868        2.0644322307       -1.6999329868
 C         -5.2126134501        2.0144871229       -0.8608388318
 H         -4.4179118871        2.7424132125       -0.9050709147
 H         -6.3982993843        2.8569510306       -2.4262427246
 H         -8.1583929390        1.1365647748       -2.2555370153
 H         -7.9669728413       -0.6749352154       -0.5922709077
 H         -5.9801414680       -0.7510455810        0.9170699996
 H         -2.8878013561       -1.0747571028        1.7964670468
 H         -3.2037276416        0.2800825814       -1.5528496158
 H         -1.4298307080        0.0146180666       -3.2548618467
 H          0.6465161298       -1.1975737644       -2.6986196738
 H          1.7674153502       -2.7387008479       -1.3143054109
 C          1.2067313085       -3.4917977819        0.6049025154
 C          0.5538057473       -4.7652486473        0.1597656104
 C          2.0307441269       -4.7275894078        0.4091523993
 H          2.4207827161       -5.2286024401        1.2824735003
 H          2.6945454376       -4.7556526178       -0.4423870715
 H         -0.0730162911       -5.2958408334        0.8599366497
 H          0.2135778857       -4.8168318435       -0.8633100494
 H          1.0429147802       -3.1667082835        1.6248833245
