  62
        -98.94563756
 C          1.4382652442        1.2598139517        0.1023109357
 C          1.5821369260       -0.0385034043       -0.4475606123
 C          2.7351940641       -0.8120991866        0.0359305269
 C          3.5536179461       -0.2980982510        0.9699105763
 C          4.7502012628       -0.9788552386        1.5772988671
 C          6.0284400805       -0.8638757742        0.7352486496
 C          6.0506632377       -1.7141407972       -0.5357440037
 H          7.0777863096       -1.7089723821       -0.9060592281
 H          5.8000990022       -2.7454734981       -0.2851957249
 C          5.1217531137       -1.2129407260       -1.6503682753
 H          4.8390595905       -0.1770274148       -1.4499255356
 H          5.6580695481       -1.2209049292       -2.6018832541
 C          3.8518860708       -2.0432825588       -1.8390851571
 H          3.2509031741       -1.5778936346       -2.6241850392
 H          4.1170645269       -3.0501592387       -2.1693483074
 C          2.9819010941       -2.1559254538       -0.5805355103
 H          3.4486846448       -2.8250847489        0.1424307441
 H          2.0121276219       -2.5754532460       -0.8612466085
 H          6.1804367958        0.1860202557        0.4743744101
 H          6.8633860444       -1.1733641408        1.3681499399
 H          4.5218374679       -2.0302791331        1.7557519225
 H          4.9267489436       -0.4942809133        2.5401924847
 O          3.3666860475        0.9410195989        1.4978387716
 C          2.3235557339        1.7440637590        1.0701017049
 O          2.2890608123        2.8656252807        1.6175390918
 O          0.8084283626       -0.5497722980       -1.2984696280
 C          0.3208707271        2.2185814339       -0.2702760244
 C         -0.9126365317        2.0164023965        0.5806983729
 C         -1.6792411234        3.1090111597        0.9720893132
 C         -2.8195388566        2.9327285019        1.7335772406
 C         -3.2243521545        1.6646180025        2.1097034093
 C         -2.4639194893        0.5653829490        1.7276023360
 C         -1.3162792987        0.7479909649        0.9676825834
 H         -0.7295100172       -0.1143591119        0.6967477170
 N         -2.8372552295       -0.7287822740        2.1150124929
 S         -2.6289378696       -2.0225767184        1.0730295677
 O         -3.5242252446       -3.0342878668        1.5965856657
 O         -1.2390618949       -2.3926450727        1.0039978818
 C         -3.2459403416       -1.4389976018       -0.4947937410
 C         -2.3867681240       -1.1160174062       -1.5239491061
 C         -2.9216556414       -0.6166116100       -2.7027226693
 C         -4.2906933275       -0.4477373551       -2.8306490615
 C         -5.1404789505       -0.7831393876       -1.7869117418
 C         -4.6148500389       -1.2817583317       -0.6073277103
 H         -5.2412217283       -1.5678569996        0.2220767479
 H         -6.2060734872       -0.6555435159       -1.8891850716
 H         -4.6972425307       -0.0549181656       -3.7492759635
 H         -2.2573004947       -0.3592995512       -3.5126720958
 H         -1.3226594757       -1.2448261043       -1.3988623818
 H         -3.7191460727       -0.7865426368        2.6026479143
 H         -4.1127377262        1.5239078241        2.7060266904
 H         -3.4011194174        3.7897221221        2.0368537426
 H         -1.3656861029        4.1027627023        0.6905557474
 H          0.7077649209        3.2245185109       -0.0533017222
 C         -0.0663515845        2.1619261742       -1.7365877192
 C         -0.5887100566        3.3905365688       -2.4152511243
 C          0.7772706950        2.8722538794       -2.7501029003
 H          0.9376891939        2.4000681946       -3.7074929035
 H          1.6345282577        3.4216209014       -2.3877636688
 H         -1.3751131758        3.2777477870       -3.1452205011
 H         -0.6522714142        4.2997115769       -1.8373864384
 H         -0.4899467828        1.2095729862       -2.0246720005
