  62
        -98.93695797
 C         -2.6279486552        1.2270045935       -0.1432892661
 C         -2.6610971681        0.2447514398        0.8726925959
 C         -3.8675303778       -0.6018722380        0.9203649927
 C         -4.8509200586       -0.3910569180        0.0283030861
 C         -6.1272848295       -1.1705110283       -0.1284932482
 C         -5.9582849022       -2.2835803412       -1.1765925656
 C         -5.4115962984       -3.6032581511       -0.6332894477
 H         -6.1800252599       -4.0864103117       -0.0261236502
 H         -5.2165716079       -4.2513129824       -1.4908472373
 C         -4.1311826686       -3.4902023223        0.1984297869
 H         -3.6507810753       -4.4705084432        0.2073072268
 H         -3.4385598725       -2.7965479655       -0.2819852758
 C         -4.3897741135       -3.0512592107        1.6474290868
 H         -5.4568121967       -3.1253963054        1.8567476508
 H         -3.8919027634       -3.7441809321        2.3288096348
 C         -3.8899008212       -1.6436757786        2.0053525855
 H         -4.4772306458       -1.2594686528        2.8460862275
 H         -2.8527696261       -1.7025671718        2.3504358627
 H         -5.2978692312       -1.9063215811       -1.9616964709
 H         -6.9288983716       -2.4832045462       -1.6351953166
 H         -6.4527246509       -1.5741248505        0.8255941111
 H         -6.8799909338       -0.4659004073       -0.4882908340
 O         -4.7802954132        0.5752534026       -0.9292984517
 C         -3.6755130792        1.3968756930       -1.0473271824
 O         -3.7408136000        2.2232087659       -1.9802399412
 H          0.9889085298        2.1562341691        1.0793235134
 C          0.9643713006        1.4420074026        0.2711299986
 C         -0.1780993646        1.3086424245       -0.5004231038
 C         -0.1715475729        0.3831947402       -1.5413628400
 C          0.9411957918       -0.3966007066       -1.7878000572
 C          2.0742954466       -0.2733285168       -1.0019306822
 C          2.0840246681        0.6535730142        0.0300175735
 N          3.2239737708        0.7781757613        0.8384308029
 S          4.7388912956        0.8444583674        0.1264589212
 O          5.5774628571        1.5185207495        1.0935845208
 O          4.6800177918        1.4326561130       -1.1915439454
 C          5.2409155033       -0.8602023846        0.0135080500
 C          5.2057204123       -1.6291045132        1.1602131330
 C          5.6063866599       -2.9537205334        1.0899271056
 C          6.0363240177       -3.4833347655       -0.1177629118
 C          6.0692186739       -2.6973514847       -1.2593355089
 C          5.6686260311       -1.3717573126       -1.1959369795
 H          5.6722417877       -0.7250204622       -2.0590109472
 H          6.4041986444       -3.1107083739       -2.1971203529
 H          6.3477660441       -4.5147099553       -0.1693038829
 H          5.5814775714       -3.5683316288        1.9754245285
 H          4.8673843970       -1.1810812159        2.0795896669
 H          3.1338533463        1.4552744923        1.5814802830
 H          2.9441516587       -0.8822857850       -1.1859046647
 H          0.9274997571       -1.1113160442       -2.5968414970
 H         -1.0577782478        0.2845876887       -2.1543341062
 C         -1.4204493207        2.1370767486       -0.2785433495
 H         -1.5924214273        2.7367926834       -1.1843932892
 C         -1.3354565620        3.0696495788        0.9114587335
 C         -0.6581637611        4.3998474780        0.7791235395
 C         -2.1498696395        4.3268145085        0.9036227899
 H         -2.6077112254        4.6507594275        1.8261926066
 H         -2.7492463852        4.5235782508        0.0265339409
 H         -0.0935274897        4.7795509094        1.6176922892
 H         -0.2410764822        4.6551090707       -0.1835733432
 H         -1.2469022671        2.5388479185        1.8525436239
 O         -1.7278910123        0.0753377131        1.7006152741
