  62
        -98.93320618
 C          1.9104521287        0.8648000145        0.6661550652
 C          2.0776208823        0.2861059868       -0.6139992932
 C          2.5641245415       -1.1063010443       -0.6428026078
 C          2.7508718566       -1.7624998388        0.5143472126
 C          3.2867537821       -3.1550228165        0.7010935223
 C          4.8075285507       -3.1249799384        0.9310231343
 C          5.6526609084       -3.1434186396       -0.3423084094
 H          6.6911473043       -2.9823587444       -0.0441840337
 H          5.5919837371       -4.1340602848       -0.7975353246
 C          5.2758395244       -2.0980766756       -1.3955221032
 H          5.0804527462       -1.1400675516       -0.9103865030
 H          6.1376488716       -1.9583959610       -2.0508640697
 C          4.0659916127       -2.5085621937       -2.2483130716
 H          3.8604062801       -3.5665931869       -2.0865918735
 H          4.3163388987       -2.3992935006       -3.3054119198
 C          2.7851601268       -1.6930040550       -2.0104464411
 H          2.7691229986       -0.8321696062       -2.6863270986
 H          1.9149577192       -2.3062870759       -2.2677333962
 H          5.0390850964       -2.2305089829        1.5152442543
 H          5.0870574964       -3.9902351701        1.5354766465
 H          2.8050859599       -3.5556043826        1.5956948123
 H          3.0278836443       -3.7829064918       -0.1463198878
 O          2.5122106139       -1.1898161423        1.7272822798
 C          2.0835967203        0.1196306179        1.8335720501
 O          1.8924903136        0.5027526975        3.0068790687
 O          1.8481160282        0.8939205247       -1.6920755251
 C          1.4063787319        2.2867769852        0.8381059891
 C          0.2180859025        2.5237283461       -0.0632350144
 C          0.0853686394        3.6231328041       -0.9000910143
 C         -1.0529918476        3.7780329616       -1.6728958052
 C         -2.0748034282        2.8493570934       -1.6282159682
 C         -1.9447961138        1.7355286425       -0.8034473062
 C         -0.8123833690        1.5915201583       -0.0215041438
 H         -0.7218564682        0.7292420340        0.6252647140
 N         -2.9420035477        0.7464876980       -0.7838090048
 S         -3.0830257418       -0.2960501008        0.5272579994
 O         -3.1422916755        0.4508298403        1.7651658273
 O         -2.0574873386       -1.3066919249        0.4355257523
 C         -4.6749889032       -1.0176226591        0.1747657658
 C         -5.7948660457       -0.5509722336        0.8366601477
 C         -7.0312068811       -1.0986709348        0.5316232096
 C         -7.1265880021       -2.0961398681       -0.4269304911
 C         -5.9935069294       -2.5551824238       -1.0824381937
 C         -4.7543805007       -2.0126166256       -0.7814281076
 H         -3.8452912429       -2.3419477428       -1.2574174715
 H         -6.0706330282       -3.3327656696       -1.8251154916
 H         -8.0895730450       -2.5205883382       -0.6629507418
 H         -7.9128825348       -0.7460707228        1.0420054946
 H         -5.6697146466        0.2202407110        1.5795632968
 H         -3.8376822250        1.0685263666       -1.1224375040
 H         -2.9588325858        2.9712984132       -2.2349648308
 H         -1.1443278448        4.6370028916       -2.3203535497
 H          0.8777743779        4.3505378508       -0.9623184335
 H          1.0375714353        2.3284379390        1.8780126918
 C          2.4854583750        3.3535739495        0.7184964088
 C          3.9301681575        3.0225903993        0.9435117239
 C          3.4501364568        3.3876143539       -0.4272915138
 H          3.7352413494        4.3493197017       -0.8281522597
 H          3.3647746816        2.6100063490       -1.1691193989
 H          4.5386225034        3.7311593150        1.4854190927
 H          4.1812392139        1.9904353335        1.1422984852
 H          2.1519745404        4.3118355404        1.1049440305
