  62
        -98.94533285
 C          2.1379211227        0.8736736829        0.0553971213
 C          2.8886456534        0.2665660118        1.0895657161
 C          3.6100360710       -0.9571663546        0.7226228838
 C          3.4861815610       -1.4568367901       -0.5206668479
 C          4.1331680011       -2.7135209626       -1.0369619662
 C          5.5748900595       -2.5181098858       -1.5262100667
 C          6.6124011731       -2.3032665621       -0.4235046134
 H          6.5231410470       -3.0986973126        0.3170331058
 H          7.5961748431       -2.3986586005       -0.8871561690
 C          6.5244432226       -0.9372157948        0.2711814121
 H          5.9351974332       -0.2532944861       -0.3439876909
 H          7.5250121387       -0.5079907706        0.3582835802
 C          5.9258091319       -0.9782965490        1.6771653170
 H          6.5786516390       -1.5537730792        2.3370688488
 H          5.8776888085        0.0446455955        2.0589395969
 C          4.5142771565       -1.5760864679        1.7456342091
 H          4.5560762144       -2.6571067205        1.6133888080
 H          4.0971344630       -1.3596184727        2.7323155333
 H          5.5965648247       -1.6728507123       -2.2179237735
 H          5.8517048334       -3.4136536154       -2.0872596994
 H          4.1106321675       -3.4821507145       -0.2636500037
 H          3.5252653840       -3.0511554055       -1.8793588439
 O          2.7155909975       -0.8682093090       -1.4744557724
 C          2.0403733391        0.3180531479       -1.2206441712
 O          1.3996704806        0.7616829802       -2.1918899319
 H         -0.0904315379        0.1259089695        1.2123888513
 C         -0.6946610615        0.8226279441        0.6432003703
 C         -0.0934685167        1.9559421253        0.1086768229
 C         -0.8800523674        2.8393450644       -0.6181282678
 C         -2.2256379499        2.5799698580       -0.8152956994
 C         -2.8164911302        1.4463925228       -0.2891236579
 C         -2.0404232026        0.5587633856        0.4450380290
 N         -2.6337885392       -0.5921600938        0.9963774696
 S         -3.5101213625       -1.5897971006       -0.0345855729
 O         -3.4612055535       -2.8992096441        0.5802390623
 O         -3.0366036149       -1.5001111928       -1.3963413062
 C         -5.1712180326       -0.9585980710        0.0821255977
 C         -5.7576337684       -0.8968341890        1.3311993061
 C         -7.0512577676       -0.4122177588        1.4394165816
 C         -7.7337105765       -0.0029238545        0.3033284026
 C         -7.1322350417       -0.0746179068       -0.9438183130
 C         -5.8378013587       -0.5576364969       -1.0590197789
 H         -5.3270063129       -0.6270500448       -2.0064069607
 H         -7.6641107576        0.2434281625       -1.8260798520
 H         -8.7404370628        0.3741798428        0.3902591815
 H         -7.5222031449       -0.3550101315        2.4074835192
 H         -5.1940100952       -1.2289150903        2.1869510481
 H         -1.9959020329       -1.1433904485        1.5528869276
 H         -3.8619733425        1.2378409276       -0.4468447312
 H         -2.8228060230        3.2713867514       -1.3898971233
 H         -0.4379494134        3.7260282413       -1.0414842114
 C          1.3825509408        2.1570385348        0.3494860944
 H          1.5316291092        2.3433942826        1.4238125485
 C          1.9760686669        3.3106110809       -0.4312918911
 C          1.8981892569        4.7069878847        0.1074875734
 C          3.2084993943        3.9804981146        0.0957443808
 H          3.9674177186        4.2909387087       -0.6067287518
 H          3.6045539413        3.6204319125        1.0341694979
 H          1.7593195760        5.5208174788       -0.5879624071
 H          1.4068215726        4.8486585268        1.0580339312
 H          1.9040209245        3.1666643132       -1.5036682170
 O          2.9446232853        0.7196241593        2.2649389192
