  62
        -98.94960232
 C         -1.4994343191       -1.0948457304        0.0134888393
 C         -2.4930915888       -0.6370840608        0.9085772698
 C         -2.9734554688        0.7326685794        0.6887649906
 C         -2.4283151690        1.4712135799       -0.2954625092
 C         -2.8419355790        2.8705899601       -0.6463788083
 C         -3.9447522793        2.8772765907       -1.7141869380
 C         -5.1111477693        1.9405188006       -1.3999852683
 H         -5.8422329995        2.0498907010       -2.2037663780
 H         -4.7548013093        0.9083143906       -1.4256680689
 C         -5.7916086989        2.2066220699       -0.0500810480
 H         -6.8740084790        2.1819494200       -0.1921954577
 H         -5.5337037188        3.2051867997        0.3045243825
 C         -5.4624804587        1.1831704693        1.0383225714
 H         -5.6295615489        0.1736483295        0.6544704109
 H         -6.1553610785        1.3363009689        1.8699943417
 C         -4.0409770586        1.2502716289        1.6115690811
 H         -3.8155357284        2.2722357388        1.9247766816
 H         -4.0077512684        0.6076266885        2.4966337308
 H         -3.5055174995        2.5714536812       -2.6664118983
 H         -4.3137720893        3.8988287708       -1.8220207174
 H         -1.9664009691        3.3973877302       -1.0303539683
 H         -3.1869315988        3.3761958196        0.2536381720
 O         -1.4617268093        1.0048222302       -1.1239536996
 C         -0.9671412993       -0.2802288199       -0.9847537304
 O         -0.0735726295       -0.5793000995       -1.8013230608
 O         -2.9510605187       -1.3402526412        1.8515816495
 C         -0.9255097491       -2.4889225205        0.1873601884
 C          0.5725716609       -2.4126035906        0.3531397981
 C          1.4533759107       -3.3134370404       -0.2327810026
 C          2.8201155908       -3.1714957605       -0.0635514828
 C          3.3377879010       -2.1198859410        0.6701486076
 C          2.4639693512       -1.2202551312        1.2690968583
 C          1.0966196312       -1.3901026611        1.1339874385
 H          0.4336402013       -0.6818070013        1.6095168990
 N          2.9334014314       -0.1126297116        2.0079749787
 S          2.5896989614        1.4051391287        1.3811720196
 O          3.2268028116        2.3371037382        2.2876863699
 O          1.1686807213        1.5570724689        1.2049990800
 C          3.4436901210        1.4351282895       -0.1852740106
 C          4.6943286710        2.0214670094       -0.2396124206
 C          5.4005133507        1.9906343200       -1.4306570008
 C          4.8507439804        1.3661276106       -2.5404692710
 C          3.5971545404        0.7793909707       -2.4674421910
 C          2.8810018407        0.8098814501       -1.2798015808
 H          1.9004018607        0.3644131801       -1.2084662708
 H          3.1609428602        0.2926059611       -3.3249926311
 H          5.4002500002        1.3372644811       -3.4681650011
 H          6.3741601807        2.4498097600       -1.4892349008
 H          5.0779041713        2.4975702790        0.6484349096
 H          3.9203138715       -0.1598651018        2.2243827385
 H          4.4043041810       -1.9916463011        0.7781994274
 H          3.4913418106       -3.8782636103       -0.5268433134
 H          1.0691854005       -4.1243001601       -0.8298458829
 H         -1.3607996789       -2.8729260709        1.1225197383
 C         -1.3571637194       -3.3849832099       -0.9559099519
 C         -1.5596764195       -4.8539190600       -0.7362589227
 C         -2.7420244695       -3.9569979198       -0.9417524619
 H         -3.2846272297       -4.0190906993       -1.8731366618
 H         -3.3635676193       -3.7228060002       -0.0896875716
 H         -1.2931732297       -5.5356249296       -1.5298354731
 H         -1.3855495193       -5.2400469105        0.2566628971
 H         -0.9604993597       -3.0572825594       -1.9105432819
