  62
        -98.94825694
 C          1.3333845404        1.1645121504       -0.0315184198
 C          2.1001239203        0.5823273004        1.0055881902
 C          2.6385961299       -0.7566807298        0.7349255304
 C          2.3503865897       -1.3576859199       -0.4337944895
 C          2.8630953293       -2.7029045201       -0.8572224493
 C          4.1842988292       -2.5764245606       -1.6290490895
 C          5.2233003595       -1.6965699907       -0.9341426998
 H          6.1224547595       -1.7030865911       -1.5538457398
 H          4.8581556398       -0.6674398106       -0.9069386499
 C          5.5811780196       -2.1428304906        0.4903202603
 H          5.2726528193       -3.1776077905        0.6434199605
 H          6.6662900596       -2.1068826709        0.6073085802
 C          4.9857940299       -1.2700456903        1.5968059202
 H          5.2152156201       -0.2198402604        1.3991618500
 H          5.4690954299       -1.5386270002        2.5399861502
 C          3.4716759299       -1.3996622598        1.8072142804
 H          3.2018892596       -2.4517531198        1.9240802906
 H          3.2167392101       -0.8798687396        2.7358468003
 H          4.5935524789       -3.5771438907       -1.7781587494
 H          3.9716616492       -2.1454324307       -2.6099132995
 H          3.0006201892       -3.3258842900        0.0245839007
 H          2.1159065991       -3.1672220500       -1.5032108192
 O          1.5888107997       -0.7793006699       -1.3958959795
 C          1.0642096601        0.4954664703       -1.2243261297
 O          0.3892546401        0.9034369003       -2.1879331797
 O          2.3238228806        1.1585727705        2.1053076101
 C          0.7223956007        2.5373138306        0.1842142300
 C         -0.7833171993        2.4318090810        0.1527988802
 C         -1.5967150491        3.2659345611       -0.6029256798
 C         -2.9713966092        3.1037712315       -0.5884352897
 C         -3.5601851194        2.1081128117        0.1686744206
 C         -2.7562375195        1.2736461616        0.9376232006
 C         -1.3818859595        1.4494238413        0.9337042904
 H         -0.7669295296        0.7968532712        1.5373372805
 N         -3.3232626897        0.2591627619        1.7343145908
 S         -2.7906998401       -1.3171084182        1.5599768910
 O         -3.7236253302       -2.1043631479        2.3365445112
 O         -1.4025442401       -1.4190687686        1.9304857309
 C         -3.0024226304       -1.6696878885       -0.1732854989
 C         -2.0158607904       -1.2698101889       -1.0503746791
 C         -2.2042638806       -1.4598919590       -2.4094849590
 C         -3.3721407308       -2.0516039288       -2.8654119288
 C         -4.3529010608       -2.4556482884       -1.9711128786
 C         -4.1733949406       -2.2571893082       -0.6116643387
 H         -4.9081009406       -2.5558307779        0.1185769214
 H         -5.2577709409       -2.9187930282       -2.3303508685
 H         -3.5164128109       -2.1980399589       -3.9242370988
 H         -1.4350369406       -1.1282772893       -3.0893253191
 H         -1.1173551202       -0.8144457890       -0.6660658692
 H         -4.3338683797        0.2717438522        1.7482984609
 H         -4.6316170794        1.9769758020        0.1714087707
 H         -3.5917366291        3.7564775815       -1.1833246297
 H         -1.1545959890        4.0405484909       -1.2072339800
 H          1.0195581609        2.8307131107        1.2024711800
 C          1.2881813509        3.5406906503       -0.7981459802
 C          1.3531059913        4.9940592604       -0.4379978604
 C          2.6095694511        4.1800158900       -0.4976154804
 H          3.2982974011        4.3487076197       -1.3118212605
 H          3.0909570511        3.9102738100        0.4313764996
 H          1.1818865414        5.7259109303       -1.2128354105
 H          0.9845796615        5.2848882006        0.5340862496
 H          1.0853758607        3.2747813202       -1.8292559501
