  62
        -98.94210052
 C         -0.6592190097       -1.8798593063        0.0806286772
 C         -1.4419726975       -1.1866369505        1.0297222423
 C         -2.6857404920       -0.5583970036        0.5441211734
 C         -3.0112559415       -0.6907994953       -0.7551893215
 C         -4.1993895844       -0.1131357826       -1.4774824135
 C         -4.0360723348        1.3851837544       -1.7815911467
 C         -3.4681280644        2.2191053253       -0.6361471659
 H         -2.4877939143        1.8216545004       -0.3654998537
 H         -3.2961672285        3.2296064906       -1.0177659778
 C         -4.3558813275        2.3285519365        0.6015308893
 H         -3.8527323969        3.0008269312        1.3015165325
 H         -5.3023958202        2.7940751210        0.3169608856
 C         -4.6617174291        1.0194632578        1.3318467515
 H         -5.4076434778        0.4389600327        0.7959503057
 H         -5.1063519944        1.2830743077        2.2960417491
 C         -3.4402072184        0.1592785250        1.6377922244
 H         -3.7323058829       -0.6184182544        2.3540853475
 H         -2.6985417086        0.7719971039        2.1630939574
 H         -5.0056874600        1.7854143907       -2.0839317732
 H         -3.3477106979        1.4857633883       -2.6247943327
 H         -4.2823805868       -0.6510454134       -2.4246362274
 H         -5.1073152388       -0.2981711620       -0.9104894415
 O         -2.2342399909       -1.3859567900       -1.6340571621
 C         -1.0399788289       -1.9738745651       -1.2576469641
 O         -0.4311081718       -2.5454417903       -2.1827854761
 O         -1.1141131004       -1.0818149667        2.2435668463
 C          0.6571821958       -2.4846530181        0.5228644493
 C          1.8336489054       -1.8243590761       -0.1586174965
 C          3.0667681229       -2.4564013772       -0.2814166690
 C          4.1306934262       -1.8058979470       -0.8809436822
 C          3.9984895555       -0.5145871168       -1.3596218258
 C          2.7703174061        0.1261141693       -1.2428065728
 C          1.7084277071       -0.5301432035       -0.6405624946
 H          0.7550626780       -0.0308385828       -0.5824335868
 N          2.5830772384        1.4236295728       -1.7324931577
 S          1.4025440394        2.4347611519       -1.1332495330
 O          0.0923741170        1.9874802363       -1.5337311621
 O          1.7956941845        3.7447714011       -1.6084131552
 C          1.5758957129        2.3664408213        0.6401865563
 C          0.5591370999        1.8514676349        1.4162333260
 C          0.7345064571        1.7642438197        2.7876492448
 C          1.9188131194        2.2028194458        3.3584042737
 C          2.9270220769        2.7348453726        2.5681568678
 C          2.7589332353        2.8139346358        1.1956275366
 H          3.5185029698        3.2248439234        0.5508124571
 H          3.8441191477        3.0804696047        3.0172995872
 H          2.0541315522        2.1294250870        4.4259271524
 H         -0.0476630047        1.3303866226        3.3903833920
 H         -0.3489199226        1.5128514612        0.9416409829
 H          3.4131612900        1.9108814521       -2.0319770308
 H          4.8286680036       -0.0112791483       -1.8303084474
 H          5.0800541402       -2.3107224237       -0.9748773527
 H          3.1896615175       -3.4619003863        0.0869111261
 H          0.7292062408       -2.2648012323        1.5998107018
 C          0.6482124522       -3.9898288037        0.3359006134
 C          1.3144373866       -4.8900049897        1.3321573400
 C         -0.1806238949       -4.8273836907        1.2622604714
 H         -0.7193186166       -5.6693081861        0.8541354533
 H         -0.7085597304       -4.3134512371        2.0524370769
 H          1.8051372840       -5.7817193002        0.9719330275
 H          1.7955898115       -4.4305501826        2.1824324488
 H          0.6703400632       -4.2764192997       -0.7094471355
