  62
        -98.93499614
 C          2.4796116560        1.4764698224        0.2320096125
 C          2.7541841939        0.5968293994       -0.8411494141
 C          3.7141916403       -0.4926132212       -0.5719472727
 C          4.2424019691       -0.6309511658        0.6574593085
 C          5.2564671310       -1.6137597572        1.2043872992
 C          5.5948315814       -2.8937859532        0.4445219365
 C          4.4508630498       -3.9023750755        0.3465336825
 H          4.7769287438       -4.7274721087       -0.2904674899
 H          4.2565867480       -4.3076669474        1.3427420968
 C          3.1311218799       -3.3538045050       -0.1910146090
 H          2.4103231411       -4.1762034977       -0.2152328481
 H          2.7335447115       -2.6060574432        0.4993339899
 C          3.1957326557       -2.7518298478       -1.5936414624
 H          3.6278965666       -3.4778834168       -2.2850306980
 H          2.1674744529       -2.5585949227       -1.9128396641
 C          3.9771481449       -1.4313906873       -1.7143998321
 H          5.0436925041       -1.6117823186       -1.8238857442
 H          3.6352155589       -0.9199021036       -2.6188778511
 H          6.4099281296       -3.3735343359        0.9929926606
 H          5.9773361146       -2.6567947322       -0.5438455193
 H          6.1799280883       -1.0410140508        1.3446561704
 H          4.9018423705       -1.8759301652        2.2062365465
 O          3.9281753994        0.2285634763        1.6704980508
 C          3.0552446179        1.2840292201        1.4901097914
 O          2.8767951763        1.9780611543        2.5108096059
 H          0.1590365251        0.7492220445       -1.1796369082
 C         -0.4384222201        1.2106186088       -0.4067704248
 C          0.1132602130        2.2317329995        0.3556056759
 C         -0.6635869253        2.8124440995        1.3504378031
 C         -1.9606412396        2.3817134085        1.5709017906
 C         -2.5081135794        1.3681690218        0.8048904702
 C         -1.7368796245        0.7763017760       -0.1870635397
 N         -2.2835885056       -0.2540226577       -0.9750665862
 S         -2.9477764860       -1.5684098710       -0.1663562491
 O         -2.3290866651       -1.7625809904        1.1253807312
 O         -2.8609639658       -2.6742427846       -1.0950303536
 C         -4.6576957568       -1.1129834540        0.0337350742
 C         -5.3755972853       -0.7734532411       -1.0964776951
 C         -6.7079491112       -0.4179172159       -0.9609616572
 C         -7.2975125850       -0.4108729291        0.2945839873
 C         -6.5643477588       -0.7581452414        1.4189014348
 C         -5.2304650895       -1.1137366843        1.2903816970
 H         -4.6190245855       -1.3843568220        2.1365703021
 H         -7.0241452722       -0.7523256243        2.3941129461
 H         -8.3345166713       -0.1328526489        0.3975295371
 H         -7.2811921637       -0.1470904004       -1.8329138366
 H         -4.8802087583       -0.7944419758       -2.0527785783
 H         -1.6559871823       -0.5688714266       -1.7019132844
 H         -3.5164789858        1.0271539164        0.9738438735
 H         -2.5520951691        2.8397424089        2.3488727107
 H         -0.2376447347        3.5927056299        1.9642016607
 C          1.5374850199        2.6661418545        0.1230772376
 H          1.8212898098        3.3276911521        0.9563818601
 C          1.7282772618        3.4541192349       -1.1671464286
 C          0.6829478389        3.5809550007       -2.2308877887
 C          1.0024595067        4.7534812941       -1.3565763345
 H          1.5377368143        5.5899858032       -1.7794012646
 H          0.2763764016        5.0258612381       -0.6052997342
 H          1.0168215165        3.5893252214       -3.2573628131
 H         -0.2616861972        3.0812365861       -2.0858541748
 H          2.7568101552        3.4191051573       -1.5114467981
 O          2.2396658205        0.6957374712       -1.9860644925
