  62
        -98.94025429
 C          1.4041085609        1.6209904527       -0.0282482094
 C          2.2934475885        1.0428593718        0.9061338869
 C          3.0856674273       -0.1037310257        0.4320322370
 C          2.9074342311       -0.5529546396       -0.8224447492
 C          3.6458350339       -1.6572236038       -1.5365875258
 C          3.9289091499       -2.9490564861       -0.7581672601
 C          2.8587614371       -3.3355030515        0.2727038972
 H          1.9638403157       -2.7278250852        0.1298367346
 H          2.5771987794       -4.3778081238        0.1147811511
 C          3.3413962091       -3.1984358262        1.7184948490
 H          2.7079673617       -3.8154466835        2.3603922326
 H          4.3583503151       -3.5903489374        1.7900763216
 C          3.3129542389       -1.7798337669        2.2851004232
 H          3.7758167613       -1.8022448196        3.2747755993
 H          2.2772456454       -1.4575597850        2.4248908777
 C          4.0233082507       -0.7147329496        1.4336383612
 H          4.3273335381        0.0988303744        2.0980745330
 H          4.9119430616       -1.1216153000        0.9571456656
 H          4.8923681196       -2.8687246217       -0.2566155153
 H          4.0274321734       -3.7464415879       -1.4965321587
 H          4.5924634677       -1.2466487029       -1.9004714218
 H          3.0375251480       -1.8822181509       -2.4152263441
 O          2.0045930382        0.0076278966       -1.6747757183
 C          1.2370202935        1.1019668487       -1.3112069354
 O          0.4640763281        1.5057118916       -2.1989156935
 O          2.4286888185        1.4723212247        2.0842664430
 C          0.5809965260        2.8283012786        0.3832303796
 C         -0.8870145245        2.4974922387        0.2837344072
 C         -1.8014501331        3.2582416194       -0.4314123350
 C         -3.1297883191        2.8728724505       -0.5055659105
 C         -3.5767075872        1.7334991331        0.1371145444
 C         -2.6708360022        0.9691601163        0.8629433387
 C         -1.3413965503        1.3546972771        0.9328554287
 H         -0.6361429973        0.7557996568        1.4965894797
 N         -3.1199460668       -0.1918609729        1.5295067811
 S         -3.6859323039       -1.4603999256        0.5963382393
 O         -4.7559897058       -0.9814243256       -0.2396409111
 O         -4.0219039884       -2.5082302825        1.5328361590
 C         -2.3066748479       -1.9808136762       -0.4086974359
 C         -1.6651940236       -3.1640926675       -0.0992415461
 C         -0.5839520464       -3.5613896129       -0.8681642938
 C         -0.1547136338       -2.7641145131       -1.9185284132
 C         -0.8023490211       -1.5740495945       -2.2110652854
 C         -1.8920553730       -1.1767865266       -1.4519508474
 H         -2.4131190168       -0.2564209890       -1.6617140642
 H         -0.4559956454       -0.9373331928       -3.0098188517
 H          0.6917020267       -3.0704074618       -2.5128223547
 H         -0.0778513276       -4.4869251806       -0.6456904672
 H         -2.0323574340       -3.7506932203        0.7275287297
 H         -2.4508922814       -0.5495897143        2.1971338060
 H         -4.6032297255        1.4119510788        0.0729704205
 H         -3.8277345400        3.4702667132       -1.0724174688
 H         -1.4746220115        4.1492695438       -0.9411836898
 H          0.8227476928        3.0017707941        1.4423107075
 C          0.9906750972        4.0472155850       -0.4154304633
 C          0.7974691813        5.4199240896        0.1541196644
 C          2.1759371560        4.8443353455        0.0367329948
 H          2.8427397956        5.2464534854       -0.7111584906
 H          2.6763445208        4.5221984251        0.9383247148
 H          0.5194316213        6.2216231777       -0.5132172595
 H          0.3620380524        5.4955673089        1.1390164420
 H          0.8592956180        3.9108442566       -1.4829179803
