  62
        -98.94641144
 C         -1.6308002801       -1.3908633057       -0.0677912614
 C         -2.6923650677       -0.8770293037        0.7118840289
 C         -3.2901025522        0.3737392705        0.2295315279
 C         -2.8146225256        0.9532481340       -0.8882489905
 C         -3.3260493295        2.2254530419       -1.5095353553
 C         -2.7518436922        3.5061131798       -0.8873634337
 C         -3.2767612661        3.8469288164        0.5076439601
 H         -2.9632036578        4.8693004006        0.7281523114
 H         -4.3670152090        3.8358767273        0.4998900828
 C         -2.7585721522        2.9222139328        1.6181693352
 H         -1.8845422429        2.3742593988        1.2568294729
 H         -2.4293942599        3.5221661618        2.4699173279
 C         -3.7896750879        1.9204083882        2.1379181534
 H         -4.6106838273        2.4563836410        2.6191808585
 H         -3.3100727195        1.2930869581        2.8940509020
 C         -4.3719048563        0.9998324262        1.0573002575
 H         -4.9193264853        0.1944635218        1.5533901213
 H         -5.0642197158        1.5544081240        0.4242886739
 H         -1.6634373057        3.4230388905       -0.8481041684
 H         -2.9995128317        4.3332597828       -1.5566055272
 H         -3.0380621392        2.1939423065       -2.5624152421
 H         -4.4145387740        2.2499710626       -1.4497615650
 O         -1.7983252636        0.4201039863       -1.6164498744
 C         -1.1718599301       -0.7542829912       -1.2225274930
 O         -0.2460264239       -1.1194171472       -1.9671869883
 O         -3.1145971504       -1.4304380912        1.7637160540
 C         -0.9202747354       -2.6531680318        0.3845879446
 C          0.5511818347       -2.3688985716        0.5618925360
 C          1.5556700552       -3.2154193693        0.1125456299
 C          2.8878452427       -2.8726113112        0.2727376100
 C          3.2482412501       -1.6838334788        0.8794517013
 C          2.2507528744       -0.8351764204        1.3421112542
 C          0.9195817114       -1.1864825622        1.1924030477
 H          0.1470711028       -0.5189485465        1.5553869420
 N          2.6023767410        0.3919025922        1.9444032828
 S          3.4887790908        1.4479607315        0.9885682607
 O          4.8470679625        0.9733569396        0.9079463015
 O          3.3046425438        2.7495141594        1.5911539650
 C          2.7250219167        1.3915494739       -0.6204359124
 C          3.2441146078        0.5590318190       -1.5905146155
 C          2.6092958874        0.4866218520       -2.8192638546
 C          1.4748212550        1.2449066587       -3.0564192597
 C          0.9692887497        2.0809677431       -2.0738943436
 C          1.5923659326        2.1500049852       -0.8393334119
 H          1.2287596463        2.7884051357       -0.0484124222
 H          0.0832359969        2.6649873115       -2.2664336811
 H          0.9746142933        1.1793922935       -4.0093157734
 H          2.9941683138       -0.1679587539       -3.5842452338
 H          4.1319175686       -0.0102292595       -1.3693721693
 H          1.8078467739        0.8810073090        2.3321165278
 H          4.2795639715       -1.3915026922        0.9941682684
 H          3.6568489045       -3.5387534754       -0.0875761429
 H          1.2964575406       -4.1410975280       -0.3742722183
 H         -1.3491050640       -2.8989657728        1.3677700582
 C         -1.2043124252       -3.7947414240       -0.5689481711
 C         -1.2281118824       -5.2088676426       -0.0727657987
 C         -2.5068120573       -4.5260007847       -0.4518065514
 H         -3.0098253428       -4.8330228852       -1.3564514008
 H         -3.1780433974       -4.2182194889        0.3367619490
 H         -0.8551302113       -5.9890597213       -0.7190720264
 H         -1.0351708993       -5.3751020996        0.9763262916
 H         -0.8237708846       -3.6055894005       -1.5663606277
