  62
        -98.94144648
 C         -1.6437344701       -1.1702512590        0.1650202002
 C         -1.6777988900        0.1849189209        0.5826238305
 C         -2.7706239002        1.0085192510        0.0519374810
 C         -3.6536765804        0.4525725512       -0.7974689788
 C         -4.8460145406        1.1547320413       -1.3783159483
 C         -6.0867627304        0.9651481611       -0.4947121780
 C         -5.8422065699        1.2651640408        0.9841829220
 H         -6.7924367497        1.1305230506        1.5055019123
 H         -5.1472185098        0.5253900207        1.3883149016
 C         -5.3001179498        2.6737977207        1.2643134522
 H         -5.4796998501        3.3182541109        0.4030697924
 H         -5.8492702996        3.0990347705        2.1070170924
 C         -3.8158441597        2.7204144007        1.6319181117
 H         -3.5928949296        3.7180780206        2.0197653219
 H         -3.6147217595        2.0064468705        2.4348053015
 C         -2.8331413701        2.4460870909        0.4864123313
 H         -3.0665052004        3.0951313811       -0.3603515984
 H         -1.8309531800        2.6943927509        0.8488696211
 H         -6.8817214805        1.6109257512       -0.8720597176
 H         -6.4202992004       -0.0713722889       -0.5832071681
 H         -4.6214853007        2.2142660614       -1.4841893681
 H         -5.0462089309        0.7335886615       -2.3648926383
 O         -3.5809886105       -0.8420289487       -1.1911860792
 C         -2.5788491204       -1.6902133188       -0.7312925397
 O         -2.6501834105       -2.8416798587       -1.1955051599
 O         -0.8278962298        0.6814585208        1.3707114203
 C         -0.5079201299       -2.0141214891        0.7167393396
 C          0.6945393198       -1.8916182288       -0.1839024807
 C          0.6117063894       -2.1957792685       -1.5401930408
 C          1.7189398591       -2.0572059983       -2.3559131211
 C          2.9183826393       -1.5915853284       -1.8439783314
 C          3.0080360097       -1.2746227087       -0.4943726113
 C          1.9008704899       -1.4396278389        0.3282419990
 H          1.9862914403       -1.1869482592        1.3742035790
 N          4.2106274698       -0.7973124988        0.0555750584
 S          4.1872711401        0.5959033909        0.9885045287
 O          5.5788522501        0.9753406709        1.0997337784
 O          3.4974618505        0.3459682207        2.2266014189
 C          3.3199059798        1.7863257512       -0.0171926107
 C          4.0670602595        2.5388124014       -0.9041137108
 C          3.4194659292        3.4206744415       -1.7527129604
 C          2.0370675692        3.5259504515       -1.7107273899
 C          1.3031525395        2.7621953913       -0.8174782199
 C          1.9444252198        1.8830956311        0.0423132397
 H          1.3802964700        1.2914235810        0.7464806198
 H          0.2273179995        2.8346942013       -0.7781115595
 H          1.5283020290        4.2072729417       -2.3743889396
 H          3.9904418190        4.0189579417       -2.4443452604
 H          5.1395939295        2.4291352014       -0.8983651812
 H          4.9736969096       -0.7549050187       -0.6054501118
 H          3.7790893691       -1.4743309183       -2.4847081016
 H          1.6453911188       -2.3037447881       -3.4043194011
 H         -0.3287660207       -2.5430241485       -1.9415055706
 H         -0.2440911096       -1.5395199293        1.6759585496
 C         -0.8980515498       -3.4534059791        1.0192610094
 C         -0.3225903300       -4.6380153990        0.3083218290
 C          0.0795639004       -4.3494225493        1.7213744689
 H         -0.2793004793       -4.9947574095        2.5088429189
 H          1.0731150005       -3.9594459293        1.8886347787
 H         -0.9819858201       -5.4701208889        0.1143715690
 H          0.4030436397       -4.4679666388       -0.4710045312
 H         -1.9364612897       -3.5383078392        1.3221273197
