  62
        -98.94054523
 C          1.4902889909        1.2066334740        0.1640088213
 C          2.5538105235        0.7375728641        0.9707261174
 C          3.1230280497       -0.5764538003        0.6287074159
 C          2.5865306740       -1.2829080118       -0.3835187677
 C          2.9108729452       -2.6632956424       -0.9155788360
 C          4.2178784006       -3.3584816074       -0.5426146633
 C          5.4781615808       -2.6934067265       -1.0949866769
 H          5.4885958985       -2.8164652590       -2.1808052608
 H          6.3455800792       -3.2202310351       -0.6915113444
 C          5.6202076335       -1.2027052473       -0.7981893428
 H          4.8141537666       -0.6534866393       -1.2891067315
 H          6.5594950001       -0.8615067880       -1.2416069937
 C          5.6436590955       -0.8303377142        0.6831383839
 H          5.9168702506        0.2260520231        0.7525258034
 H          6.4145275111       -1.4088306893        1.1956621059
 C          4.3126875438       -1.0126711039        1.4345287696
 H          4.3331330838       -0.3716736282        2.3210270842
 H          4.1866334754       -2.0368849971        1.7786962471
 H          4.1639491285       -4.3660886436       -0.9639443649
 H          4.2884105098       -3.4728943944        0.5351445175
 H          2.8453699605       -2.5856029532       -2.0056715022
 H          2.0754043820       -3.2993146861       -0.6005530638
 O          1.5314683781       -0.8107658045       -1.1060346956
 C          0.9506070735        0.4196613201       -0.8516879094
 O         -0.0103510441        0.6858770405       -1.5986567518
 O          3.0058156144        1.3884356811        1.9523901071
 C          0.8667783886        2.5455106954        0.5146627168
 C         -0.6356295597        2.4146777909        0.5497069684
 C         -1.5075081901        3.2730310037       -0.1072765398
 C         -2.8761779769        3.0746169928       -0.0368149034
 C         -3.4019081876        2.0057491960        0.6645209110
 C         -2.5366323195        1.1400165348        1.3233783860
 C         -1.1721037113        1.3656077354        1.2875573283
 H         -0.5151119312        0.6804540881        1.8047623533
 N         -3.0104237285        0.0040882330        2.0184917761
 S         -2.6381278207       -1.4741322787        1.3151951855
 O         -3.2515952281       -2.4673039330        2.1721022852
 O         -1.2142889822       -1.5843994897        1.1304626080
 C         -3.5013565751       -1.4322171829       -0.2457969209
 C         -2.9488647298       -0.7501764032       -1.3112384091
 C         -3.6799814597       -0.6526648896       -2.4863430171
 C         -4.9374394112       -1.2288558970       -2.5749399888
 C         -5.4767522313       -1.9102248027       -1.4937579643
 C         -4.7559822008       -2.0086140427       -0.3152240945
 H         -5.1317002960       -2.5292393958        0.5510211254
 H         -6.4540868078       -2.3598813816       -1.5643318145
 H         -5.4991551322       -1.1463257700       -3.4920566093
 H         -3.2540970381       -0.1205589076       -3.3218381516
 H         -1.9660891441       -0.3116528154       -1.2252147464
 H         -4.0047766621        0.0312552208        2.2031227307
 H         -4.4674718924        1.8342189052        0.6974707044
 H         -3.5402416100        3.7502814122       -0.5537513491
 H         -1.1169870763        4.0885584813       -0.6932339437
 H          1.2110372200        2.7431169489        1.5445279454
 C          1.3571181838        3.7076696023       -0.3368230160
 C          2.6705380126        3.6410749168       -1.0556424793
 C          1.3904802174        3.6359462508       -1.8331990626
 H          1.1311922580        4.5207720007       -2.3958841721
 H          1.0707606374        2.7138212981       -2.2922776887
 H          3.2866786935        4.5274902824       -1.0787218319
 H          3.2327651576        2.7207861050       -0.9884648198
 H          1.1031110175        4.6683430017        0.1003593895
