  62
        -98.94825551
 C          1.3131794411        1.5616347397        0.2175953298
 C          1.6417929110        0.5941198000        1.1979467301
 C          2.9205867706       -0.0984403406        1.0140022699
 C          3.7059208004        0.2186946186       -0.0318063405
 C          5.0685628901       -0.3508685921       -0.3213226208
 C          5.0475830092       -1.6758901724       -1.0945278502
 C          4.5769219990       -2.8868162119       -0.2885162796
 H          4.8106300884       -3.7765834322       -0.8764669393
 H          5.1467801693       -2.9500213118        0.6391544902
 C          3.0749887091       -2.8854782211        0.0271931109
 H          2.6499338786       -3.8697967210       -0.1827668685
 H          2.5573416892       -2.1822741311       -0.6299627191
 C          2.7224100498       -2.5483753804        1.4757998809
 H          3.0924363596       -3.3359212903        2.1368116311
 H          1.6313317298       -2.5298547199        1.5486365013
 C          3.2681807405       -1.2006759804        1.9675637702
 H          2.8017314609       -0.9718955898        2.9290626003
 H          4.3476199305       -1.2619420008        2.1072578999
 H          4.4119800790       -1.5575663125       -1.9752377100
 H          6.0656472090       -1.8682103930       -1.4411389005
 H          5.5914566502        0.3920195674       -0.9276879312
 H          5.6137800603       -0.4836463120        0.6136145491
 O          3.3497225905        1.1462937684       -0.9594136307
 C          2.1277371508        1.8020568589       -0.8881701806
 O          1.9016714608        2.5649060587       -1.8468234908
 H         -0.4191590699       -0.2371186898       -0.3875715489
 C         -1.0518800298        0.4305552303       -0.9515807489
 C         -0.9572932092        1.8009989703       -0.7501830495
 C         -1.7592019891        2.6382422004       -1.5149262895
 C         -2.6226612396        2.1068411304       -2.4581117690
 C         -2.7341354803        0.7393533604       -2.6337392584
 C         -1.9406653204       -0.1068096397       -1.8674550984
 N         -2.0298259310       -1.5033320497       -1.9790574978
 S         -1.9416509309       -2.4107157392       -0.5708253475
 O         -0.5726405608       -2.5516258696       -0.1479594479
 O         -2.6261939316       -3.6440956490       -0.9004828467
 C         -2.9011306401       -1.4877547683        0.6176467225
 C         -2.2967537394       -0.8197228381        1.6625275820
 C         -3.0881073888       -0.0679747675        2.5182018420
 C         -4.4571729288        0.0036815831        2.3178646525
 C         -5.0502227495       -0.6817966071        1.2681326129
 C         -4.2662861201       -1.4323481678        0.4086160730
 H         -4.6899754207       -1.9879000679       -0.4123571267
 H         -6.1162891695       -0.6299448367        1.1165751733
 H         -5.0643517584        0.5952074336        2.9848272424
 H         -2.6198803683        0.4615124827        3.3329217516
 H         -1.2275320694       -0.8768700485        1.7989883617
 H         -2.7617069314       -1.8344575496       -2.5904136574
 H         -3.4202630507        0.3285794504       -3.3583130080
 H         -3.2306548296        2.7687204104       -3.0557831991
 H         -1.7033173486        3.7055791604       -1.3787851300
 C         -0.0164437886        2.2847899604        0.3267553900
 H         -0.4380915484        1.9637746409        1.2920783103
 C          0.1666576821        3.7863613603        0.3547511493
 C         -0.8278545573        4.6490271510        1.0712874694
 C          0.5391855228        4.4439723906        1.6489014790
 H          1.2404053232        5.2645325403        1.6266143484
 H          0.6397963729        3.8093070409        2.5173655592
 H         -1.6597285073        4.1579732415        1.5529273398
 H         -1.0656493670        5.6160843209        0.6546720791
 H          0.6234135019        4.1696684497       -0.5501387210
 O          0.9018638012        0.3291312007        2.1841463004
