  62
        -98.93845480
 C         -2.1872458828       -0.8505754952       -0.1243674173
 C         -3.0852286260       -0.5161758171        0.9216662196
 C         -3.8672200685        0.7194295359        0.7586088824
 C         -3.6829868462        1.4719503445       -0.3393186976
 C         -4.3259770274        2.7881232336       -0.6992453274
 C         -5.8263206457        2.9459189930       -0.4192090481
 C         -6.6552484744        1.6642166882       -0.5880032083
 H         -7.5058162993        1.8750829194       -1.2387906290
 H         -6.0557329366        0.8931862537       -1.0749358451
 C         -7.1994555093        1.1263051635        0.7374906961
 H         -7.5735875338        1.9651442403        1.3283549702
 H         -8.0473953961        0.4697971531        0.5282468087
 C         -6.2046886849        0.3267372378        1.5778609595
 H         -6.6787106281        0.1013494663        2.5360645935
 H         -5.9936138849       -0.6295349703        1.0918417054
 C         -4.8584209739        1.0190124316        1.8464676876
 H         -4.4377528311        0.5931973891        2.7613490258
 H         -4.9862451538        2.0891517631        1.9897202050
 H         -5.9701532244        3.3326382705        0.5886130323
 H         -6.1945293395        3.7114626824       -1.1043681638
 H         -4.1379994890        2.9120296223       -1.7686798450
 H         -3.7786472342        3.5833815235       -0.1842276560
 O         -2.8005701429        1.1209988094       -1.3161456944
 C         -2.0347574792       -0.0318526379       -1.2418858053
 O         -1.2886918496       -0.1954851686       -2.2286000054
 O         -3.2241104236       -1.2214900442        1.9555391495
 C         -1.3601957838       -2.1155581069        0.0471943729
 C          0.0449222271       -1.7227596929        0.4340448280
 C          0.4200063820       -1.7001611184        1.7734571123
 C          1.6828760407       -1.2758318869        2.1454322447
 C          2.5934521838       -0.8554687496        1.1920017069
 C          2.2223498660       -0.8594430846       -0.1457055877
 C          0.9638738810       -1.3079600989       -0.5189960090
 H          0.6787239815       -1.2843643499       -1.5595175298
 N          3.1332033368       -0.4039600236       -1.1198571037
 S          3.7323090387        1.1538020255       -0.9055932337
 O          2.8142558941        1.9791483802       -0.1537140098
 O          4.0819133119        1.6180019469       -2.2306947012
 C          5.2294744605        0.9013465308        0.0267130843
 C          5.4016969537        1.5368911498        1.2407134064
 C          6.5787004653        1.3311328325        1.9438350688
 C          7.5571922935        0.4982928465        1.4231014951
 C          7.3697603219       -0.1308380881        0.2012343042
 C          6.1962951244        0.0717959371       -0.5072743522
 H          6.0123164082       -0.3928311380       -1.4614388529
 H          8.1332781754       -0.7769676955       -0.2009384711
 H          8.4714180746        0.3392678558        1.9727891521
 H          6.7257266118        1.8196779855        2.8936575240
 H          4.6100869253        2.1704789086        1.6080901798
 H          2.7757914671       -0.5010784079       -2.0605583365
 H          3.5756018760       -0.5127830043        1.4743398729
 H          1.9601160511       -1.2668088710        3.1885368058
 H         -0.2983973109       -2.0001296997        2.5229407741
 H         -1.8104005170       -2.6383153320        0.9015129493
 C         -1.4105899352       -3.0295847488       -1.1595518072
 C         -0.9590008687       -4.4508598094       -1.0119235179
 C         -2.4138281732       -4.1417843521       -1.1940176091
 H         -2.8803511056       -4.3839148568       -2.1372119232
 H         -3.0696536247       -4.2506601852       -0.3426301400
 H         -0.4236173824       -4.9088862632       -1.8292730103
 H         -0.6269703398       -4.7676315112       -0.0349122010
 H         -1.2015063283       -2.5272302474       -2.0952186729
