  62
        -98.93260048
 C          1.8616447887        0.7830124477        0.4900837410
 C          2.7791673240        0.8503858875       -0.5852665632
 C          3.7336954969       -0.2725350226       -0.6962003270
 C          3.6517579268       -1.2984431842        0.1669103381
 C          4.5518162401       -2.4998966383        0.2518045010
 C          5.6828648445       -2.2586206089        1.2658910585
 C          6.9234524225       -1.5711697200        0.6965647437
 H          7.5820892097       -1.3409469589        1.5373050481
 H          7.4547436626       -2.2702168274        0.0472090577
 C          6.6580279904       -0.2827317174       -0.0867006617
 H          5.9204335782        0.3241271953        0.4416804205
 H          7.5873602280        0.2897961753       -0.1129451331
 C          6.1912529201       -0.5372850268       -1.5277483675
 H          6.8063050577        0.0480736651       -2.2144409482
 H          6.3628174864       -1.5844270655       -1.7766827975
 C          4.7285952020       -0.1693237568       -1.8201746887
 H          4.6739697944        0.8752102261       -2.1428716310
 H          4.3702446063       -0.7731234700       -2.6604630877
 H          5.9912001404       -3.2194260390        1.6831367928
 H          5.2753398632       -1.6623234643        2.0864720894
 H          3.9350442270       -3.3267516104        0.6097711401
 H          4.9484603106       -2.7557053710       -0.7261161840
 O          2.7184065331       -1.3474052698        1.1576465327
 C          1.8183446117       -0.3185361293        1.3483475428
 O          1.0357011766       -0.4903930258        2.3052776497
 H         -1.6343415919        1.6219226575        1.8272559061
 C         -1.6386392695        1.4950049404        0.7532567990
 C         -0.4463531022        1.5873285517        0.0516055674
 C         -0.4631842731        1.3861135801       -1.3253419744
 C         -1.6533913086        1.1256369991       -1.9796878977
 C         -2.8447510374        1.0485057939       -1.2786156599
 C         -2.8339385224        1.2230834630        0.0988413726
 N         -4.0305865437        1.1251540622        0.8239545009
 S         -5.1553325068       -0.0313746863        0.3895559720
 O         -5.9360017864        0.4471905410       -0.7241700951
 O         -5.8934897690       -0.3076302945        1.6015379462
 C         -4.2186275461       -1.4661580595       -0.1115980327
 C         -3.2591814798       -1.9650146643        0.7468903409
 C         -2.5256630051       -3.0747445959        0.3599674643
 C         -2.7662712508       -3.6675692320       -0.8701924586
 C         -3.7378777113       -3.1591465263       -1.7181716338
 C         -4.4706171743       -2.0462366718       -1.3384343234
 H         -5.2301919075       -1.6140326751       -1.9696215210
 H         -3.9234340827       -3.6232088974       -2.6734113712
 H         -2.1914386967       -4.5305107216       -1.1674015523
 H         -1.7652296116       -3.4645966622        1.0179816619
 H         -3.0879982685       -1.4896080806        1.6994935971
 H         -3.9180647772        1.1792990203        1.8252724509
 H         -3.7804636662        0.8604872916       -1.7795176164
 H         -1.6558378987        0.9812909812       -3.0493412646
 H          0.4653600960        1.4421017838       -1.8731238448
 C          0.8390126149        1.8680404477        0.7860182679
 H          0.6283422844        1.7733670835        1.8633529468
 C          1.3682142049        3.2771536724        0.5574586070
 C          0.8707895237        4.1918021510       -0.5168637283
 C          0.5109154624        4.4564344461        0.9121768248
 H          0.9644123891        5.2950870996        1.4184993886
 H         -0.5067361750        4.2560778695        1.2135716445
 H          1.5937120979        4.8312060260       -0.9998680059
 H          0.0970200696        3.8354245681       -1.1780357440
 H          2.4227240420        3.3562289921        0.8002880520
 O          2.8246928047        1.7913616183       -1.4176131561
