  62
        -98.93900852
 C          2.0972832035        0.7544432680        0.5665008200
 C          2.0272920920        0.0193619177       -0.6389563783
 C          1.9913912237       -1.4480570678       -0.5148378770
 C          1.9928162239       -2.0078934181        0.7088271861
 C          1.8830437637       -3.4547163262        1.1449803304
 C          2.0761072232       -4.5900607907        0.1431451362
 C          3.4972014306       -4.7271410448       -0.4018656125
 H          4.1483831852       -5.0646184825        0.4082110928
 H          3.4936814132       -5.5013938693       -1.1720184183
 C          4.1040995562       -3.4521559229       -0.9815282624
 H          4.2040440326       -2.7025604738       -0.1939747511
 H          5.1122748907       -3.6905350920       -1.3308313121
 C          3.3389176781       -2.8396670039       -2.1530357903
 H          3.9613026849       -2.0452826399       -2.5731048939
 H          3.1888382886       -3.5930013271       -2.9286502701
 C          1.9749090124       -2.2189003038       -1.8029699585
 H          1.7176319572       -1.4963911155       -2.5831292210
 H          1.1853713880       -2.9668600908       -1.7862988681
 H          1.3616849459       -4.4959400131       -0.6693753329
 H          1.8342128549       -5.5155078655        0.6729881906
 H          2.5977689444       -3.5742299002        1.9658603334
 H          0.8846756506       -3.5479120296        1.5882512766
 O          2.0512468376       -1.2538475427        1.8477890338
 C          2.0912593685        0.1277530999        1.8089873292
 O          2.1275834938        0.6748318950        2.9318845066
 H         -0.3679593870        1.2694776692        0.9394703655
 C         -0.3908209687        2.0422679136        0.1834416797
 C          0.7824841716        2.7033803236       -0.1576037379
 C          0.7234712877        3.7079201661       -1.1142923627
 C         -0.4760459022        4.0084831826       -1.7373210015
 C         -1.6297685442        3.3100701815       -1.4337067488
 C         -1.5845150163        2.3177431528       -0.4600455584
 N         -2.7382140021        1.5968135011       -0.1034318853
 S         -2.5534850324       -0.0145134813        0.3694653882
 O         -2.2143699223       -0.0500075740        1.7715747037
 O         -1.6597248381       -0.7110163753       -0.5275768546
 C         -4.2259791278       -0.5951502678        0.1495366742
 C         -4.5622971861       -1.2757616091       -1.0053046084
 C         -5.8722996359       -1.6943635808       -1.1795546301
 C         -6.8191116142       -1.4233356130       -0.2032384914
 C         -6.4666018086       -0.7389394147        0.9506762210
 C         -5.1584187817       -0.3189932894        1.1318286021
 H         -4.8338572839        0.2067558522        2.0146523096
 H         -7.2044311571       -0.5323939207        1.7089364560
 H         -7.8375485953       -1.7502978523       -0.3410489086
 H         -6.1479234799       -2.2293299399       -2.0739925573
 H         -3.7897369276       -1.4695145758       -1.7322485106
 H         -3.4876652851        1.7011673531       -0.7741821722
 H         -2.5568283152        3.5270693716       -1.9420362504
 H         -0.5074904618        4.7853810294       -2.4861410294
 H          1.6186493642        4.2441182229       -1.3837674001
 C          2.0558364222        2.2716998613        0.5308809330
 H          2.0100457413        2.6000784143        1.5802852712
 C          3.3102352676        2.8313291761       -0.1060612240
 C          3.8276527471        4.1779140865        0.2994157150
 C          4.5544281267        2.9375532691        0.7217240223
 H          5.5026612610        2.7093868699        0.2588549374
 H          4.4873270104        2.6284450355        1.7550185759
 H          4.2823247370        4.8037481876       -0.4535508554
 H          3.2745218893        4.7199934437        1.0514866572
 H          3.4204131564        2.5262817556       -1.1402269612
 O          1.9908520839        0.5628345828       -1.7746602392
