  62
        -98.94075448
 C          2.0205307431        1.3356931998        0.3698501770
 C          2.4973513649        0.6299840335       -0.7627825148
 C          3.7043865982       -0.1852999518       -0.5473863467
 C          4.2681945562       -0.2301909013        0.6724907094
 C          5.4653247789       -1.0582457296        1.0375881663
 C          5.0460168916       -2.4412986569        1.5550835736
 C          4.0333919453       -3.1552034772        0.6592117388
 H          3.8349633672       -4.1318829769        1.1062493188
 H          3.0916789881       -2.6010031196        0.6702887289
 C          4.4915765276       -3.3419278607       -0.7939966157
 H          5.5738058179       -3.2234401452       -0.8590353129
 H          4.2579024377       -4.3621508568       -1.1056986291
 C          3.8177901730       -2.4047189203       -1.7983193020
 H          2.7324691988       -2.4514189629       -1.6740287915
 H          4.0456788604       -2.7658383497       -2.8047728465
 C          4.2477305055       -0.9337262567       -1.7318088637
 H          5.3370892948       -0.8665791289       -1.7652536815
 H          3.8438294107       -0.4316167672       -2.6158537008
 H          5.9408193901       -3.0577566333        1.6578848187
 H          4.6011753534       -2.3205333781        2.5456574596
 H          6.1072902946       -1.1641862245        0.1653654736
 H          6.0169665847       -0.5385905767        1.8229543300
 O          3.7688406787        0.4419517189        1.7412208688
 C          2.6266839330        1.2175471960        1.6229196965
 O          2.2493248300        1.7371902682        2.6924961671
 H         -0.2198890420       -0.1646358939        0.9485153629
 C         -0.7136277499        0.2260773323        0.0663057129
 C         -0.3208255006        1.4626955319       -0.4333875887
 C         -0.9643985322        1.9549778318       -1.5601698162
 C         -1.9539752609        1.2127579367       -2.1821034365
 C         -2.3269305355       -0.0256159685       -1.6949157592
 C         -1.6975161070       -0.5223915228       -0.5599208002
 N         -2.0756399900       -1.7757875654       -0.0497306807
 S         -3.7077936152       -2.1310583192        0.0408377774
 O         -3.8281015055       -3.0761930289        1.1290792988
 O         -4.1790325559       -2.5885049356       -1.2425680770
 C         -4.5028301178       -0.5896499095        0.4602355701
 C         -4.1373254809        0.0307580778        1.6385440169
 C         -4.7207485226        1.2435022753        1.9666066912
 C         -5.6557067644        1.8122606824        1.1149588187
 C         -6.0165184034        1.1741495502       -0.0613285501
 C         -5.4342345735       -0.0381791200       -0.3955312308
 H         -5.6831925527       -0.5669898478       -1.3011156037
 H         -6.7455085001        1.6176214166       -0.7201467878
 H         -6.1053407415        2.7581829992        1.3723888810
 H         -4.4411223848        1.7407924265        2.8815901756
 H         -3.4112014126       -0.4397776078        2.2823219369
 H         -1.5918948580       -2.0422673356        0.7945033450
 H         -3.0794169570       -0.6239166161       -2.1825052656
 H         -2.4364005206        1.6015524190       -3.0657615501
 H         -0.6722029047        2.9069882422       -1.9707754561
 C          0.7718858449        2.1991802008        0.3029274248
 H          0.4503788013        2.3094111589        1.3520704972
 C          1.0128049432        3.6071325405       -0.2211176147
 C          2.3489784543        4.2693780959       -0.0696839612
 C          1.8543380282        3.8825646596       -1.4294555054
 H          1.5428457018        4.6687778813       -2.1017075256
 H          2.3086835664        3.0394842290       -1.9246755379
 H          2.3749903789        5.3164154212        0.1926926857
 H          3.1488877295        3.6906271909        0.3694537099
 H          0.1460916654        4.2445051839       -0.0759632144
 O          1.9561633357        0.6682487342       -1.8968337904
