  62
        -98.94442926
 C         -1.8251930105       -0.0377699241       -0.4417369164
 C         -2.9853187531        0.2933532850       -1.1820003821
 C         -4.2599263332       -0.1772148549       -0.6245010024
 C         -4.2536888162       -0.8965996576        0.5127217467
 C         -5.4818965852       -1.3930546787        1.2181328881
 C         -5.9736565192       -0.3765047207        2.2580775691
 C         -6.0912221037        1.0496963522        1.7202542522
 H         -6.4749143835        1.6721400812        2.5315528761
 H         -5.0935026629        1.4209070573        1.4750348470
 C         -7.0009548624        1.1922538575        0.4919931854
 H         -7.6451108840        2.0627458884        0.6328278526
 H         -7.6497660728        0.3196664056        0.4084121259
 C         -6.2560604851        1.3982587935       -0.8282047542
 H         -5.5363183493        2.2133261712       -0.7190469933
 H         -6.9836727015        1.7030813932       -1.5850213921
 C         -5.5149481000        0.1713869926       -1.3744214239
 H         -6.1936414461       -0.6831609962       -1.4095285466
 H         -5.1987033855        0.4019395875       -2.3959572580
 H         -6.9439820515       -0.7077837158        2.6325460731
 H         -5.2705717206       -0.3702982730        3.0943302431
 H         -6.2630488645       -1.5859510036        0.4853613367
 H         -5.2329651046       -2.3267642817        1.7253139913
 O         -3.1167870084       -1.2169471912        1.1827007713
 C         -1.8753315573       -0.7895819885        0.7318482204
 O         -0.9197839098       -1.1421214208        1.4489530161
 O         -2.9545994513        0.9462727992       -2.2597094976
 C         -0.4755695172        0.4379124840       -0.9474506428
 C          0.4543954050       -0.7309212789       -1.1543761502
 C          0.0015402320       -1.8273365341       -1.8845867745
 C          0.8180803067       -2.9198844562       -2.0982814304
 C          2.1052507561       -2.9426880861       -1.5903864993
 C          2.5733506704       -1.8488412215       -0.8730668044
 C          1.7525771252       -0.7472509903       -0.6685533494
 H          2.1321508396        0.0855400815       -0.1011953098
 N          3.8908509692       -1.8269908569       -0.3989705404
 S          4.3284415914       -1.0136940544        0.9927328844
 O          5.6327216420       -1.5552403856        1.3157282944
 O          3.3311870516       -1.1108566116        2.0315928829
 C          4.5293886544        0.6792770869        0.4784152066
 C          4.1435212817        1.6884024216        1.3380161660
 C          4.3467208334        3.0068865718        0.9603425220
 C          4.9290433801        3.2914880013       -0.2652544987
 C          5.3109049197        2.2661259604       -1.1169360176
 C          5.1153265444        0.9461907854       -0.7432280640
 H          5.4011744376        0.1253280274       -1.3791245074
 H          5.7612096708        2.4915920644       -2.0700871068
 H          5.0830716246        4.3181382329       -0.5576123107
 H          4.0499354641        3.8046559598        1.6229800201
 H          3.6815758993        1.4214200523        2.2757010616
 H          4.4040168766       -2.6886173665       -0.5113453245
 H          2.7423621585       -3.7996806352       -1.7477230496
 H          0.4494927546       -3.7653872389       -2.6596125282
 H         -1.0070649114       -1.8131663090       -2.2749951324
 H         -0.6792489257        0.8902301123       -1.9299829293
 C          0.0856986016        1.5054235698       -0.0318921573
 C          0.9715968814        2.5795325630       -0.5867715668
 C         -0.4267185199        2.9077174904       -0.1599764158
 H         -0.5716518457        3.4873233635        0.7393527087
 H         -1.1668474150        3.0949202697       -0.9242902557
 H          1.7917873053        2.9353513420        0.0179038787
 H          1.1841403453        2.5511790653       -1.6445647877
 H          0.2882733287        1.1339222690        0.9674366110
