  62
        -98.94020247
 C          2.3640412396        1.2494959689        0.0220363100
 C          3.3615675695        0.8809603885        0.9638905100
 C          4.4735632495        0.0716126887        0.4564431398
 C          4.5105284997       -0.2638597808       -0.8454552904
 C          5.5934634998       -1.0545348905       -1.5280268406
 C          5.4398281697       -2.5755574705       -1.3916963912
 C          5.7469320996       -3.1385146611       -0.0034379714
 H          5.8149424396       -4.2233462311       -0.1059755018
 H          6.7234589595       -2.7807543612        0.3241531589
 C          4.6912582494       -2.8086137915        1.0611891286
 H          3.7684183995       -2.4871235913        0.5724528886
 H          4.4535690994       -3.7102848518        1.6300160882
 C          5.1168157093       -1.7381954619        2.0662222791
 H          4.2816950392       -1.5573006822        2.7476056491
 H          5.9603314593       -2.1039099922        2.6557595391
 C          5.5097852194       -0.3974008017        1.4325253097
 H          5.5794148493        0.3500816480        2.2264153500
 H          6.4804422995       -0.4817439015        0.9442243398
 H          4.4228434398       -2.8513594604       -1.6804197514
 H          6.1245249598       -3.0367527402       -2.1071998513
 H          5.5443079699       -0.7969107600       -2.5882896105
 H          6.5664838197       -0.7501699606       -1.1411957903
 O          3.5420982298        0.1129126896       -1.7203646803
 C          2.4404007597        0.8587778294       -1.3150992102
 O          1.6364903598        1.0903617998       -2.2392378002
 O          3.3275175293        1.2284593680        2.1738179801
 C          1.2267366395        2.1091687587        0.5455387202
 C          0.0170230995        1.2881059185        0.9081626497
 C         -0.5903850407        1.4177561280        2.1515434997
 C         -1.7248533407        0.6881504879        2.4627757793
 C         -2.2814498306       -0.1764764617        1.5370060289
 C         -1.6798991205       -0.3141433012        0.2932511689
 C         -0.5365405704        0.4071035589       -0.0110724307
 H         -0.0812115203        0.3021841893       -0.9855361607
 N         -2.2733292403       -1.1685940008       -0.6698773015
 S         -3.6431317403       -0.4823328305       -1.3814389414
 O         -3.8611212701       -1.2188412500       -2.6069203717
 O         -3.5004352202        0.9508084395       -1.5092968008
 C         -4.9399012904       -0.8599945010       -0.2229852917
 C         -5.3025882304       -2.1825086811       -0.0563922123
 C         -6.3027264105       -2.4918115014        0.8515191475
 C         -6.9191077706       -1.4793220717        1.5721978278
 C         -6.5450486306       -0.1564941716        1.3908726284
 C         -5.5450754205        0.1599654787        0.4844626086
 H         -5.2170943905        1.1724312688        0.3123115291
 H         -7.0257630607        0.6288145481        1.9516630286
 H         -7.6966002107       -1.7227226720        2.2790256376
 H         -6.5974418605       -3.5189405615        0.9945779770
 H         -4.7998358704       -2.9349421408       -0.6408909625
 H         -1.6281334603       -1.4102291005       -1.4110102416
 H         -3.1655727706       -0.7470671218        1.7699767285
 H         -2.1828870208        0.7967262875        3.4337229693
 H         -0.1611174108        2.0918845977        2.8783362600
 H          1.6209391294        2.5448644283        1.4774610804
 C          0.8845624696        3.2681359091       -0.3831979994
 C         -0.3920823603        3.3822729794       -1.1568738295
 C         -0.1509326704        4.2757851689        0.0207834209
 H          0.0473685896        5.3226397390       -0.1521238586
 H         -0.7147759605        4.0728815185        0.9188336908
 H         -0.3331690302        3.8025149998       -2.1499785693
 H         -1.1353066203        2.6037034793       -1.0715206499
 H          1.7700738997        3.6570315593       -0.8771879591
