  62
        -98.94650334
 C         -2.2929578207       -0.6330142587       -0.0737996996
 C         -1.3903273014       -0.8429345302        0.9917883054
 C         -0.6286400046       -2.1033681572        0.9716939089
 C         -0.7994008951       -2.9494289664       -0.0587546940
 C         -0.0651831049       -4.2368104522       -0.3139231826
 C          1.1703063346       -3.9889299517       -1.1975976871
 C          2.4497129283       -3.6602532918       -0.4308885977
 H          2.7836664402       -4.5461486904        0.1142972940
 H          3.2157168297       -3.4165386897       -1.1708929965
 C          2.3242867701       -2.4872864741        0.5445494635
 H          1.7466256505       -1.6926674353        0.0690460243
 H          3.3255348346       -2.0891839247        0.7251440125
 C          1.6942825540       -2.8811181943        1.8882331925
 H          1.6824873068       -3.9683734130        1.9673689557
 H          2.3270019563       -2.5165221408        2.6998673025
 C          0.2839761902       -2.3312820640        2.1462291115
 H         -0.2282003360       -2.9902740008        2.8557554957
 H          0.3604202446       -1.3517335310        2.6271892920
 H          0.9409379872       -3.1647724823       -1.8792555692
 H          1.3539154733       -4.8780217403       -1.8048885346
 H          0.2115624859       -4.7151247046        0.6213292385
 H         -0.7560543087       -4.8884618842       -0.8530905909
 O         -1.6708635993       -2.7029310377       -1.0758979394
 C         -2.4231056283       -1.5446291888       -1.1193459432
 O         -3.1649937503       -1.4431182715       -2.1193183070
 H         -0.8651529995        0.8264792162       -1.6111438703
 C         -0.9762649896        1.7031091110       -0.9900406213
 C         -2.0867113933        1.8188504864       -0.1635147804
 C         -2.2210051716        2.9657778878        0.6080183148
 C         -1.2453918092        3.9480411016        0.5744715213
 C         -0.1112228466        3.7985267085       -0.2029846854
 C          0.0250935349        2.6600386383       -0.9897772837
 N          1.1633862096        2.4534931240       -1.7934950887
 S          2.0568832350        1.0490104081       -1.6100315550
 O          3.1382531056        1.1746549001       -2.5635141042
 O          1.2068443259       -0.1037032343       -1.7597828557
 C          2.7290033655        1.1280487749        0.0416600316
 C          4.0835792932        1.3518367354        0.1960887188
 C          4.6109378287        1.4333107717        1.4746118207
 C          3.7767296873        1.2981733444        2.5741001256
 C          2.4186907180        1.0815477220        2.4017427961
 C          1.8845498296        0.9941011705        1.1255436500
 H          0.8310631401        0.8174315933        0.9767220144
 H          1.7597022519        0.9777010617        3.2491623736
 H          4.1851598712        1.3617896389        3.5703786424
 H          5.6674237302        1.6013902137        1.6088002766
 H          4.6921329133        1.4483044980       -0.6884819978
 H          1.7895101455        3.2459816272       -1.8301377526
 H          0.6622631101        4.5515928931       -0.2035664371
 H         -1.3601206203        4.8336872792        1.1805961282
 H         -3.0831382282        3.0862418888        1.2433055808
 C         -3.0686482904        0.6709094152       -0.1522418600
 H         -3.5963204153        0.6554932914       -1.1173653469
 C         -4.0867956787        0.7566259748        0.9652358513
 C         -5.3522952418        1.5364186474        0.7759952179
 C         -5.3925739205        0.0389362814        0.8104240036
 H         -5.8191138681       -0.4482375652        1.6742961740
 H         -5.5575979598       -0.4929054319       -0.1156580837
 H         -5.5022398182        2.0238967754       -0.1755573851
 H         -5.7568827366        2.0766578758        1.6185288021
 H         -3.6270526520        0.7524395962        1.9466472089
 O         -1.2161148632       -0.0057661811        1.9181112575
