  62
        -98.93778657
 C         -2.0351272284       -0.9878908056       -0.3939055305
 C         -1.0944131737       -1.7348962377       -1.1421532876
 C         -0.1504350521       -2.5770160575       -0.3907796368
 C         -0.2105889395       -2.5898389044        0.9535929095
 C          0.6104298790       -3.3398382505        1.9819319251
 C          1.9028036150       -4.0466187267        1.5823612228
 C          3.0456424458       -3.1109237878        1.1866180180
 H          3.3940904750       -2.5938525132        2.0844289541
 H          3.8705679413       -3.7193465242        0.8090675281
 C          2.7032031027       -2.0402848872        0.1527659164
 H          1.9427590851       -1.3670704865        0.5567886737
 H          3.6009735849       -1.4371566673       -0.0121578392
 C          2.2444412707       -2.5653919621       -1.2060370212
 H          2.1647021841       -1.7055842107       -1.8769269796
 H          3.0000924361       -3.2406427841       -1.6124384646
 C          0.8872194803       -3.2877947028       -1.2120838467
 H          0.9881007787       -4.3227858246       -0.8952358573
 H          0.5123766790       -3.2925163863       -2.2399239251
 H          2.2307018856       -4.6132295120        2.4583424056
 H          1.7074992494       -4.7693430900        0.7954771467
 H          0.8295037323       -2.6081674882        2.7669036673
 H         -0.0675187176       -4.0773577115        2.4265808405
 O         -1.1545358642       -1.8791789193        1.6336936824
 C         -2.0240437725       -1.0072914463        1.0019398651
 O         -2.7311246672       -0.3458297105        1.7860428310
 O         -1.0290666201       -1.6834079601       -2.4016884032
 C         -2.8781735199        0.0257603946       -1.1513225834
 C         -2.5770759447        1.3921562946       -0.5861016630
 C         -3.5325428200        2.3223150697       -0.2051826479
 C         -3.1424647105        3.5289470819        0.3533967690
 C         -1.8076693631        3.8177989429        0.5666742585
 C         -0.8414830678        2.8929374807        0.1823015855
 C         -1.2344183815        1.7144599813       -0.4233740487
 H         -0.4881590576        0.9894043315       -0.7128317488
 N          0.5285375400        3.1363246680        0.3889049870
 S          1.5330076058        1.9479232710        1.0300763400
 O          0.8076742008        0.7409744510        1.3411879739
 O          2.2330552355        2.5758774822        2.1335462302
 C          2.7177421617        1.6177940681       -0.2630715138
 C          4.0438483164        1.4700393221        0.0958229595
 C          4.9783380045        1.1621811515       -0.8801317404
 C          4.5733842200        1.0034335457       -2.1963046828
 C          3.2402927081        1.1592714733       -2.5429068361
 C          2.3016894312        1.4690109244       -1.5705326439
 H          1.2603868754        1.5945189480       -1.8196126277
 H          2.9227906455        1.0370089436       -3.5663041250
 H          5.2980504505        0.7578976191       -2.9563005600
 H          6.0153181191        1.0437013640       -0.6099801060
 H          4.3135396089        1.6037613326        1.1307723214
 H          0.7203034437        4.0154014816        0.8481467550
 H         -1.5113892578        4.7441818906        1.0356352261
 H         -3.8932460236        4.2452555875        0.6515299148
 H         -4.5801727851        2.0959093693       -0.3180578395
 H         -2.4701418081       -0.0089285386       -2.1765437962
 C         -4.3592279201       -0.2891834307       -1.2759626517
 C         -4.8682345136       -1.6888421186       -1.1074458477
 C         -5.2216114253       -0.6370103012       -0.1012354472
 H         -6.2363163882       -0.2659116006       -0.0862724140
 H         -4.7511787035       -0.6731253097        0.8681002437
 H         -5.6356971165       -2.0428615696       -1.7794545395
 H         -4.1535266022       -2.4461391942       -0.8181449236
 H         -4.8297683558        0.2958765554       -2.0607530374
