  62
        -98.93688263
 C         -2.4139521388       -1.0795871221       -0.2067142142
 C         -2.4880332938        0.1509940098        0.4918733767
 C         -3.8419281681        0.5885816595        0.8647013622
 C         -4.9021842755       -0.1927207252        0.5947030007
 C         -6.3377280427        0.1111683771        0.9273221221
 C         -7.0406364561        1.0032370418       -0.1051515401
 C         -6.6091367724        2.4703124048       -0.0990269008
 H         -7.3282025330        3.0178849383       -0.7114607263
 H         -6.6787117753        2.8640498730        0.9153885278
 C         -5.1994790406        2.7193183759       -0.6537214202
 H         -4.8740417222        1.8488759931       -1.2283854566
 H         -5.2232924435        3.5654723412       -1.3441540335
 C         -4.1461948239        3.0320603895        0.4093893241
 H         -4.3916706923        3.9754859362        0.9020249000
 H         -3.1811055858        3.1549701546       -0.0894579259
 C         -3.9904880122        1.9462554582        1.4822905994
 H         -3.0803252992        2.1524980355        2.0508727268
 H         -4.8415366245        1.9648373883        2.1625675074
 H         -8.1120300168        0.9610779090        0.1038450880
 H         -6.8793004309        0.5803920779       -1.0994895513
 H         -6.3955583558        0.5762508997        1.9117209756
 H         -6.8576210768       -0.8485348159        0.9640518528
 O         -4.7800762013       -1.4026934080       -0.0144073990
 C         -3.5459735965       -1.8648807916       -0.4406961871
 O         -3.5844692344       -2.9817258397       -0.9952310713
 O         -1.4924148563        0.8562474794        0.7967430991
 C         -1.0913875489       -1.6409275233       -0.6977771895
 C         -0.0323520042       -1.5125870458        0.3691546996
 C         -0.2205989870       -2.1780250841        1.5784126091
 C          0.7257996257       -2.1032725595        2.5811654754
 C          1.8916442462       -1.3818212444        2.3922284727
 C          2.0863192725       -0.7101721915        1.1918548842
 C          1.1266583375       -0.7755869224        0.1912270948
 H          1.2968938874       -0.2258971997       -0.7193182927
 N          3.2459604328        0.0518834988        0.9767655274
 S          3.9000735022        0.0945319096       -0.5775549996
 O          3.2491132368        1.1298998412       -1.3398155565
 O          3.8833710969       -1.2300450459       -1.1580538969
 C          5.5753166617        0.5846361082       -0.2088495821
 C          5.8480117410        1.9251033806       -0.0105889377
 C          7.1418280692        2.3052460865        0.3088148602
 C          8.1357929915        1.3447312489        0.4246249702
 C          7.8476919610        0.0036870634        0.2204255462
 C          6.5554799154       -0.3835542756       -0.0980342709
 H          6.2867770430       -1.4127610785       -0.2740267240
 H          8.6232921684       -0.7400704587        0.3071604304
 H          9.1421006773        1.6438145907        0.6719662964
 H          7.3702702334        3.3472185887        0.4646945969
 H          5.0452697742        2.6357469189       -0.1197295082
 H          3.9550008464       -0.0991055275        1.6809500034
 H          2.6361864701       -1.3281332009        3.1721013496
 H          0.5611845853       -2.6198472548        3.5150153347
 H         -1.1284018431       -2.7494594034        1.7216065720
 H         -1.2772614956       -2.7174912662       -0.8527067617
 C         -0.6468676948       -1.0815304286       -2.0412692490
 C         -1.6457057251       -0.6563802802       -3.0745465762
 C         -0.7915618633        0.3673406990       -2.3921258505
 H          0.0040585847        0.8381253932       -2.9519027835
 H         -1.2461116182        1.0150372561       -1.6592236646
 H         -1.4448417471       -0.8913088182       -4.1089558027
 H         -2.6917533053       -0.7099615149       -2.8090856415
 H          0.2439438821       -1.5820194665       -2.4118387086
