  62
        -98.94762494
 C         -1.8357802007       -1.3368708555       -0.1029675844
 C         -2.9391455162       -0.6122465661        0.4120213008
 C         -3.2489082993        0.6562326581       -0.2539989763
 C         -2.4960393489        1.0656732728       -1.2907188573
 C         -2.6657264007        2.3482513689       -2.0575219568
 C         -1.9730946152        3.5435781544       -1.3882451203
 C         -2.6812802441        4.0880863699       -0.1469927887
 H         -2.2324514087        5.0577805332        0.0777824643
 H         -3.7351496372        4.2587526433       -0.3720769585
 C         -2.5532510690        3.1917857571        1.0928500297
 H         -2.3038510618        3.8073467402        1.9611040246
 H         -1.7196190522        2.4979744701        0.9535473420
 C         -3.8179987844        2.4071663985        1.4451239586
 H         -3.5966083576        1.7761050269        2.3099590269
 H         -4.6109850302        3.1028507117        1.7302930217
 C         -4.3430773986        1.5034719172        0.3218698212
 H         -5.0955710085        0.8338793304        0.7464368350
 H         -4.8090974161        2.1052881533       -0.4580855800
 H         -0.9548420253        3.2498751288       -1.1187789589
 H         -1.9089014976        4.3450486586       -2.1282422956
 H         -3.7257616876        2.5648110796       -2.1933132158
 H         -2.2116998185        2.1900394150       -3.0381164257
 O         -1.4656902530        0.3301206333       -1.7770247777
 C         -1.0706185331       -0.8475261021       -1.1623434912
 O         -0.0501775324       -1.3568883592       -1.6652005020
 O         -3.6235657867       -1.0027890665        1.3969508855
 C         -1.3882660929       -2.5777992901        0.6511347624
 C          0.0871735731       -2.4588088171        0.9448345887
 C          1.0218282262       -3.4535926536        0.6916005389
 C          2.3649026250       -3.2373902993        0.9528861978
 C          2.8072012711       -2.0204946580        1.4377189654
 C          1.8776800394       -1.0194135389        1.6955495888
 C          0.5315398315       -1.2577844080        1.4859026993
 H         -0.1767581521       -0.4689720538        1.6965257220
 N          2.2641005741        0.2645867071        2.1407199943
 S          2.0404241280        1.5074682546        1.0322846171
 O          2.5000941816        2.7040455291        1.7055201306
 O          0.6767173664        1.5192733632        0.5733763929
 C          3.1727457066        1.1060513096       -0.2866402620
 C          2.8189935071        0.1539584263       -1.2213639888
 C          3.7507188677       -0.2095058429       -2.1829476630
 C          5.0070127346        0.3758617841       -2.1924113152
 C          5.3448268307        1.3315368381       -1.2454365370
 C          4.4225378687        1.6967869172       -0.2789511704
 H          4.6375518826        2.4354808531        0.4764884188
 H          6.3213361234        1.7883683757       -1.2553819899
 H          5.7255914323        0.0857191989       -2.9427298287
 H          3.4802669291       -0.9532714577       -2.9152687671
 H          1.8338974235       -0.2872788274       -1.2026108201
 H          3.2153556950        0.3051806555        2.4822887335
 H          3.8582207107       -1.8401452735        1.6074267156
 H          3.0797103986       -4.0202327076        0.7502660944
 H          0.7043667511       -4.3922870572        0.2681790770
 H         -1.9301425282       -2.5189452872        1.6109584645
 C         -1.7843670608       -3.9003992887        0.0135220291
 C         -2.9239148473       -3.9792410295       -0.9568924051
 C         -1.5206961333       -4.2037608168       -1.4299573616
 H         -1.2269498033       -5.2086506820       -1.6961865622
 H         -1.0471556954       -3.4355800599       -2.0199993033
 H         -3.5919062987       -4.8253843366       -0.8956711970
 H         -3.4130355899       -3.0548449157       -1.2289400903
 H         -1.6938732427       -4.7292684265        0.7090132294
