  62
        -98.94382778
 C          1.8878719276        0.8275589778        0.2261605121
 C          2.0540536170       -0.2551502108        1.1194992960
 C          2.1188214443       -1.5882918922        0.5100152523
 C          1.9817284067       -1.7072057688       -0.8234470993
 C          2.0532215597       -3.0033193341       -1.5773211051
 C          3.4866050255       -3.3067837178       -2.0353165726
 C          4.5294987514       -3.1698042059       -0.9259598243
 H          5.4980104789       -3.4340420901       -1.3557797380
 H          4.5868587391       -2.1225005069       -0.6209230906
 C          4.2612578370       -4.0427104795        0.3078350860
 H          5.1954864835       -4.5222745456        0.6071774840
 H          3.5562058970       -4.8349556760        0.0541175128
 C          3.7437202370       -3.2757489607        1.5259587536
 H          3.7959958346       -3.9395052708        2.3929867644
 H          4.3970214319       -2.4229152761        1.7260832887
 C          2.3008345886       -2.7636644334        1.4295774343
 H          1.6361467599       -3.5816109217        1.1434681189
 H          2.0057411816       -2.4127743763        2.4229702305
 H          3.7462455673       -2.6132492985       -2.8384745583
 H          3.5121422906       -4.3203415808       -2.4397177942
 H          1.6846252159       -3.8057648813       -0.9410664826
 H          1.4052351429       -2.9228818206       -2.4520689209
 O          1.8114282750       -0.6455161627       -1.6508059497
 C          1.7373864262        0.6422179869       -1.1485356643
 O          1.5557280821        1.5232721647       -2.0128892260
 H         -0.5636119195        0.9263271596        0.8120306629
 C         -0.6969785824        1.9353754678        0.4525831673
 C          0.3997828670        2.7865414704        0.3891953487
 C          0.2041754086        4.0891948031       -0.0489814637
 C         -1.0513767766        4.5081766612       -0.4556076844
 C         -2.1219886554        3.6339568867       -0.4622042732
 C         -1.9395522232        2.3318294665       -0.0091224435
 N         -3.0060540625        1.4071887646        0.0021032206
 S         -2.8455505622       -0.0655821519       -0.8124398061
 O         -1.5185656895       -0.6003623622       -0.6587514873
 O         -3.3259708599        0.1041954621       -2.1705767134
 C         -4.0079199785       -1.0587934660        0.1031265739
 C         -5.2604694480       -1.3189485302       -0.4171255655
 C         -6.1519560072       -2.0748623547        0.3283537403
 C         -5.7782028773       -2.5516533801        1.5753256046
 C         -4.5163965529       -2.2816661222        2.0845598651
 C         -3.6208964906       -1.5275110610        1.3434877707
 H         -2.6269720301       -1.2999428882        1.6949348278
 H         -4.2266099447       -2.6550414611        3.0536542805
 H         -6.4725024522       -3.1397930295        2.1543248433
 H         -7.1323859723       -2.2887281073       -0.0655316497
 H         -5.5038949059       -0.9347223680       -1.3943386922
 H         -3.8713896062        1.8300756787       -0.3109692378
 H         -3.0909105599        3.9508613698       -0.8187596796
 H         -1.1912260125        5.5225868877       -0.7975810280
 H          1.0362367412        4.7733509472       -0.0867676146
 C          1.7461698841        2.2315502518        0.7862994460
 H          1.7722627099        2.1174908572        1.8805806444
 C          2.9076782992        3.1023668304        0.3556279174
 C          3.3888154173        4.2176131561        1.2340092585
 C          4.2140056078        2.9767443635        1.0790114027
 H          5.1275035830        3.0294571790        0.5059347157
 H          4.2560248677        2.2817161876        1.9049090720
 H          3.7402744715        5.1256482667        0.7676579429
 H          2.8780185210        4.3705022558        2.1725485363
 H          2.9415810380        3.2420169377       -0.7193426467
 O          2.1332774053       -0.1123498002        2.3714974505
