  62
        -98.93976224
 C          2.2135681333        0.7813813717        0.1277259917
 C          2.4422867514       -0.3742405792        0.9122737607
 C          3.1575273288       -1.4687676877        0.2474400361
 C          3.5038938808       -1.3486782110       -1.0472949031
 C          4.2153473147       -2.3863306260       -1.8726535397
 C          5.7421031034       -2.3680905867       -1.7155794835
 C          6.2661877071       -2.9079407253       -0.3842263007
 H          5.8353682052       -3.8921111553       -0.1975023963
 H          7.3443037541       -3.0400787165       -0.4948883767
 C          6.0029145201       -1.9915066561        0.8188365816
 H          6.9125754508       -1.9061432508        1.4175605534
 H          5.7577615161       -0.9872889891        0.4653467781
 C          4.8911839397       -2.4725805860        1.7513539790
 H          4.7660537245       -1.7318234207        2.5452880954
 H          5.1849352113       -3.4167205224        2.2153618582
 C          3.5321545546       -2.6672994784        1.0662946668
 H          2.7720424880       -2.7913632678        1.8415556758
 H          3.5487993506       -3.5628611492        0.4456382351
 H          6.0954994457       -1.3442870225       -1.8582943898
 H          6.1592270754       -2.9784325104       -2.5198501659
 H          3.8347146852       -3.3775777671       -1.6248293625
 H          3.9740008205       -2.1714004964       -2.9158377909
 O          3.2172934430       -0.2419177663       -1.7827336814
 C          2.5825796565        0.8545354475       -1.2158989367
 O          2.4067608734        1.8045900181       -2.0008763509
 O          2.0592628174       -0.4886075181        2.1084902466
 C          1.5056919312        1.9660824072        0.7612739239
 C          0.1727865855        2.1797065233        0.0860515188
 C         -0.2061948503        3.3719745815       -0.5140598231
 C         -1.4454736340        3.4850780814       -1.1217793424
 C         -2.3293893279        2.4228464653       -1.1409449820
 C         -1.9653656046        1.2279599104       -0.5317634874
 C         -0.7255025919        1.1184308013        0.0788252873
 H         -0.4388447932        0.1888284784        0.5555173633
 N         -2.8507829613        0.1313624577       -0.5529728092
 S         -4.4608302986        0.4472752608       -0.1432719487
 O         -5.1195419796        1.0212833902       -1.2893889869
 O         -4.5197466378        1.2266981491        1.0735639965
 C         -5.0748728806       -1.2005200133        0.1413982942
 C         -5.4599177676       -1.9625075130       -0.9452970996
 C         -5.9171788440       -3.2526790480       -0.7293956854
 C         -5.9807738014       -3.7564415988        0.5614318731
 C         -5.5923386657       -2.9789223609        1.6420424756
 C         -5.1327595513       -1.6880444931        1.4331374058
 H         -4.8292031163       -1.0451971498        2.2439709951
 H         -5.6458867304       -3.3719502033        2.6445955954
 H         -6.3385958032       -4.7603303915        0.7271377310
 H         -6.2227612786       -3.8596146531       -1.5663050269
 H         -5.4020034862       -1.5258141922       -1.9285831989
 H         -2.4953510989       -0.6432206753       -0.0082530164
 H         -3.2972402764        2.5039202129       -1.6084995685
 H         -1.7267060361        4.4163071508       -1.5903401311
 H          0.4684105010        4.2119590062       -0.5138443318
 H          1.3105437960        1.6647128189        1.8013092320
 C          2.3968193561        3.1890125565        0.7697788429
 C          2.1741572659        4.2695682187        1.7840245483
 C          3.3675233201        3.3704447198        1.8966373077
 H          4.3433853600        3.7763022763        1.6761103982
 H          3.3726453749        2.6207432218        2.6745058831
 H          2.3318524252        5.2955959517        1.4881019712
 H          1.3674601389        4.1337328947        2.4885141018
 H          2.7249711635        3.4761109685       -0.2225621235
