  62
        -98.93999405
 C         -2.3028061219       -0.5625888008        0.3321348941
 C         -3.4972370769       -0.5687823117        1.0987778816
 C         -4.4360931619        0.5336020671        0.8539619557
 C         -4.0992895509        1.4990270185       -0.0199272320
 C         -4.9740221430        2.6582056201       -0.3982901368
 C         -5.8414716386        2.3238715427       -1.6197790410
 C         -6.5786237274        0.9894190880       -1.5064608644
 H         -7.1819623256        0.8731202206       -2.4093985745
 H         -5.8476394683        0.1774894421       -1.5028896953
 C         -7.4797088714        0.8648634080       -0.2698324153
 H         -7.6836404962        1.8542565076        0.1411397343
 H         -8.4369219553        0.4376130769       -0.5760071198
 C         -6.9226821095       -0.0366843518        0.8337081756
 H         -7.7237896277       -0.2284977777        1.5524651365
 H         -6.6303865727       -0.9997232193        0.4069955285
 C         -5.7303340559        0.5262520086        1.6176267800
 H         -5.5642067741       -0.1226566247        2.4825992943
 H         -5.9691995020        1.5278142080        1.9810887480
 H         -6.5639071868        3.1297165330       -1.7612906589
 H         -5.1979247464        2.2855946231       -2.5017704365
 H         -4.3328744621        3.5075935900       -0.6398982648
 H         -5.6055796327        2.9211565518        0.4480789844
 O         -2.9252396385        1.5018746369       -0.6972968501
 C         -2.0001080544        0.4731470962       -0.5541445688
 O         -0.9858878512        0.6165003226       -1.2600397272
 O         -3.7641219038       -1.4561987742        1.9527413595
 C         -1.3221139067       -1.6989613633        0.5665583079
 C          0.0608355378       -1.1483227480        0.8009143321
 C          0.3449937888       -0.5310682768        2.0157836070
 C          1.5920184905        0.0129907067        2.2563955929
 C          2.5799030300       -0.0382919309        1.2883853291
 C          2.3068555518       -0.6510440310        0.0732502048
 C          1.0573553321       -1.2129495229       -0.1590663708
 H          0.8505048523       -1.6693411699       -1.1145594182
 N          3.2855738727       -0.6765798345       -0.9287275946
 S          4.8873694478       -0.9633103104       -0.5570040911
 O          5.4847479207       -1.4174399216       -1.7940149003
 O          5.0218966421       -1.8472887546        0.5780841038
 C          5.5372914679        0.6455398997       -0.1564401150
 C          5.2674692123        1.6926631267       -1.0154771718
 C          5.7819674206        2.9460088338       -0.7247155463
 C          6.5567661125        3.1296618590        0.4109041542
 C          6.8216187467        2.0674958455        1.2615042207
 C          6.3084114093        0.8115171930        0.9772192949
 H          6.4820486840       -0.0411808427        1.6141859534
 H          7.4239805328        2.2122728154        2.1439267414
 H          6.9553095535        4.1067459257        0.6341973873
 H          5.5756805624        3.7744508812       -1.3832661262
 H          4.6597098831        1.5120870051       -1.8865778266
 H          2.9989380244       -1.1201572117       -1.7877390180
 H          3.5528554543        0.3895784475        1.4671002151
 H          1.7976174999        0.4879707952        3.2037645557
 H         -0.4301496129       -0.4773841381        2.7680900299
 H         -1.6657200114       -2.1622242025        1.5060983518
 C         -1.3598223716       -2.7937472453       -0.4893329817
 C         -2.6575334602       -3.1947342302       -1.1228845354
 C         -1.6000366964       -2.5220427055       -1.9430421038
 H         -1.0618883996       -3.1160315300       -2.6679689092
 H         -1.7536767640       -1.4987894757       -2.2474749301
 H         -2.8501958785       -4.2442370951       -1.2868916568
 H         -3.5359715074       -2.6252125688       -0.8563937039
 H         -0.6691095465       -3.5989217083       -0.2552568145
