  62
        -98.93397358
 C         -2.2452614688       -1.0902299749        0.3673664200
 C         -2.3634019821       -0.0148812962       -0.5437570338
 C         -3.3246691748        1.0533971038       -0.1911789723
 C         -3.9775907397        0.9829578634        0.9829058028
 C         -5.0235970428        1.9175012177        1.5299662249
 C         -6.3940807599        1.7279335812        0.8599438520
 C         -6.3527370975        1.5870138368       -0.6594393563
 H         -7.3657454177        1.3547259631       -0.9984203628
 H         -5.7209107944        0.7371619616       -0.9239301968
 C         -5.8796759778        2.8261149296       -1.4157425251
 H         -6.5361494911        3.6650212146       -1.1742407343
 H         -5.9890954899        2.6155132085       -2.4826375416
 C         -4.4319491081        3.2530148200       -1.1630805799
 H         -4.3353378761        3.7731466545       -0.2138501325
 H         -4.1661857934        3.9755874293       -1.9401434204
 C         -3.4097707271        2.1241520291       -1.2522494969
 H         -2.4063018140        2.5637904761       -1.3047393590
 H         -3.5410796785        1.5972902991       -2.2042808811
 H         -7.0305595147        2.5712289323        1.1331469354
 H         -6.8454408021        0.8194393045        1.2664318234
 H         -4.6886440806        2.9467386653        1.4425452209
 H         -5.1217960034        1.6893303805        2.5937696082
 O         -3.7769030692       -0.0400955909        1.8641815475
 C         -2.9191366986       -1.0861856230        1.5898116821
 O         -2.8307094117       -1.9327821384        2.5030674737
 O         -1.7108991040        0.0673880220       -1.6157385630
 C         -1.3119857335       -2.2597462362        0.1080662003
 C          0.0316340839       -1.7603581907       -0.3656339123
 C          0.6376485217       -2.1687218714       -1.5456489166
 C          1.8838372724       -1.6800091258       -1.8982537726
 C          2.5503390559       -0.7794696458       -1.0888081401
 C          1.9546839821       -0.3653493167        0.0956380006
 C          0.7114590152       -0.8631345543        0.4503431763
 H          0.2479228165       -0.5415453116        1.3765832636
 N          2.6240812452        0.5611325515        0.9195696105
 S          4.1637538807        0.1405562692        1.4480614858
 O          4.3099287570       -1.2931570094        1.5553359003
 O          4.3690342755        0.8995083151        2.6628520217
 C          5.2426369825        0.7706634809        0.1801159610
 C          5.1927132087        2.1209605584       -0.1059254368
 C          6.0304932017        2.6280300619       -1.0863409238
 C          6.9009733692        1.7819593934       -1.7575213017
 C          6.9414095441        0.4292671373       -1.4558657624
 C          6.1050937305       -0.0847954676       -0.4770323143
 H          6.0963819296       -1.1300934815       -0.2125937506
 H          7.6188204285       -0.2266497576       -1.9785969083
 H          7.5518908290        2.1796993650       -2.5200307255
 H          6.0020300473        3.6793652596       -1.3235218300
 H          4.5045537881        2.7436798440        0.4411077611
 H          2.0668808711        0.8786959011        1.6998730609
 H          3.5167785687       -0.3907988797       -1.3653479608
 H          2.3399418568       -2.0014203288       -2.8221696632
 H          0.1265522975       -2.8541561898       -2.2011648827
 H         -1.1593636608       -2.7221554359        1.0983350961
 C         -1.9038827767       -3.3412944454       -0.7839766193
 C         -3.3865560447       -3.5427814272       -0.8737843164
 C         -2.6283274250       -3.0228538894       -2.0560249850
 H         -2.4898417791       -3.6797539011       -2.9023087958
 H         -2.7331134916       -1.9832578925       -2.3216649311
 H         -3.7643845346       -4.5537592075       -0.9051818240
 H         -4.0191618102       -2.8586750337       -0.3265053731
 H         -1.2996265199       -4.2433756026       -0.7782434708
