  62
        -98.93695695
 C         -1.8507062585       -0.7109826049        0.7277877455
 C         -2.7989135525       -1.2090658776       -0.1966307379
 C         -4.1723414775       -0.6807388281       -0.0750988887
 C         -4.4476178122        0.2310229958        0.8721922521
 C         -5.7535197096        0.9348428989        1.1176621316
 C         -5.7964894458        2.2769489352        0.3672692949
 C         -6.3056664565        2.1949676964       -1.0713128160
 H         -7.3786735649        1.9921051237       -1.0603312835
 H         -6.1631378956        3.1796765146       -1.5224797233
 C         -5.6184068133        1.1469863818       -1.9505197266
 H         -4.5408330220        1.1711022559       -1.7775351143
 H         -5.7842563316        1.4250708313       -2.9931605915
 C         -6.1534071223       -0.2747736979       -1.7243834818
 H         -6.4191841562       -0.7175595648       -2.6865233212
 H         -7.0748982663       -0.2201435812       -1.1449993589
 C         -5.1732649149       -1.2441195778       -1.0473590797
 H         -5.7424181462       -2.0314739380       -0.5420860469
 H         -4.5666541226       -1.7390779939       -1.8119323613
 H         -6.4431877786        2.9647186741        0.9160388057
 H         -4.7880360461        2.6990479950        0.3781097049
 H         -6.5913401135        0.3020216308        0.8405245767
 H         -5.8023874368        1.1344909951        2.1902064020
 O         -3.5036173974        0.6899411311        1.7400753882
 C         -2.2006652205        0.2357668845        1.6948000763
 O         -1.4552406266        0.7356957127        2.5623883873
 O         -2.5384936252       -2.0539765123       -1.0927904851
 C         -0.3945753719       -1.1549486379        0.7448544791
 C          0.3862137432       -0.4263061339       -0.3230599774
 C          0.2020821935       -0.6942501296       -1.6762207478
 C          0.9091581477        0.0113106369       -2.6318495584
 C          1.8242588179        0.9810908324       -2.2608982143
 C          2.0147485352        1.2580854753       -0.9130110161
 C          1.2943880521        0.5569267911        0.0447947350
 H          1.4372389035        0.7999022700        1.0874771425
 N          2.9376219553        2.2395056206       -0.5041526397
 S          4.0958989459        1.8131432644        0.6272566047
 O          3.4934075158        1.6551965614        1.9255640832
 O          5.1151894048        2.8326961781        0.5119842727
 C          4.7178787473        0.2512624801        0.0332555557
 C          4.1831788076       -0.9224743887        0.5235417258
 C          4.6081836689       -2.1276903649       -0.0124720235
 C          5.5556056786       -2.1372424141       -1.0242959282
 C          6.0887408530       -0.9494832804       -1.5020363486
 C          5.6630111233        0.2583921383       -0.9741734479
 H          6.0563524936        1.2036923599       -1.3115496727
 H          6.8292935502       -0.9615228033       -2.2853894687
 H          5.8814805986       -3.0772002966       -1.4407384573
 H          4.1932107296       -3.0508425176        0.3591896402
 H          3.4522637239       -0.8707941953        1.3139287987
 H          3.3709657903        2.7343452592       -1.2711269873
 H          2.3788275671        1.5290021364       -3.0077533862
 H          0.7508354376       -0.2001957476       -3.6783652161
 H         -0.5215152267       -1.4379326222       -1.9706725795
 H         -0.0035110328       -0.8314843556        1.7194430414
 C         -0.2341841560       -2.6585637029        0.6410742216
 C          0.9925848487       -3.3031416378        1.2086923493
 C         -0.3323112092       -3.4873777130        1.8848008622
 H         -0.8171407814       -4.4501524188        1.8252611990
 H         -0.5057296137       -2.9696896827        2.8176921427
 H          1.4210661222       -4.1429565328        0.6839979951
 H          1.7162980917       -2.6636776857        1.6913796523
 H         -0.6531140109       -3.0783921591       -0.2629280345
