  62
        -98.93276101
 C         -1.9471498913       -0.5062675702       -0.3634525407
 C         -3.0845379512       -1.2009375514        0.1193647577
 C         -4.3375004913       -0.4351342718        0.2533989095
 C         -4.3381041314        0.8703150989       -0.0686233675
 C         -5.4739213715        1.8602020786       -0.0090091452
 C         -6.8364772515        1.3806160897       -0.5324704063
 C         -7.8741107715        1.1738464371        0.5722971333
 H         -7.7658112315        1.9763273354        1.3050104951
 H         -8.8715270515        1.2640369480        0.1361877835
 C         -7.8027974713       -0.1749261646        1.2861847602
 H         -8.1561658512       -0.9590293031        0.6129445884
 H         -8.4936457313       -0.1377206466        2.1318011903
 C         -6.4176775313       -0.5701079056        1.8021628492
 H         -5.9112028313        0.2918154934        2.2353479112
 H         -6.5562446912       -1.2952716875        2.6069213876
 C         -5.5258701512       -1.2220636831        0.7348693077
 H         -5.1001263411       -2.1498984539        1.1295094256
 H         -6.1306462312       -1.5129911311       -0.1290939630
 H         -6.7113155214        0.4665025011       -1.1108783484
 H         -7.2178834116        2.1433139312       -1.2134609445
 H         -5.5744406216        2.2086699863        1.0220249956
 H         -5.1323935516        2.7176554600       -0.5935866332
 O         -3.2129263415        1.5084603700       -0.4956840760
 C         -1.9969840214        0.8576876605       -0.6535249976
 O         -1.0839572015        1.6027896615       -1.0529013759
 H          1.3112166186        0.2700687930       -1.5817633590
 C          1.3928869686        0.1906458205       -0.5091246892
 C          0.4696276087       -0.5662303512        0.1951085091
 C          0.5795652387       -0.6329230844        1.5806062490
 C          1.5806526987        0.0515613242        2.2445200005
 C          2.4891004586        0.8218068159        1.5406270523
 C          2.3856194186        0.8964817991        0.1576837325
 N          3.2981466685        1.6839905808       -0.5610893557
 S          4.9170863085        1.5977830901       -0.1657958660
 O          5.1854642284        2.4109987974        0.9945262359
 O          5.6247030484        1.9681213829       -1.3715433051
 C          5.2048214187       -0.1197448208        0.2244093301
 C          5.6270866187       -0.4805305137        1.4873724792
 C          5.8117643589       -1.8237433643        1.7745038561
 C          5.5676339289       -2.7779681421        0.7995474939
 C          5.1463075989       -2.3994267692       -0.4662119652
 C          4.9619484687       -1.0582954286       -0.7591139621
 H          4.6416506587       -0.7300252664       -1.7348355613
 H          4.9585874190       -3.1437934975       -1.2232567269
 H          5.7070364391       -3.8232893826        1.0256124715
 H          6.1415516189       -2.1207184766        2.7569991854
 H          5.8028749287        0.2938390447        2.2161476510
 H          3.1436983785        1.6946999531       -1.5575921957
 H          3.2623178585        1.3811949948        2.0419383136
 H          1.6518116287       -0.0084717783        3.3198774504
 H         -0.1385392112       -1.2221801558        2.1338596676
 C         -0.6552636112       -1.2955271598       -0.4922652125
 H         -0.8515174311       -2.2237905511        0.0679091253
 C         -0.3068897912       -1.7164961164       -1.9125144635
 C         -1.3826904812       -2.1468296044       -2.8630919545
 C         -0.6180295313       -0.8842939537       -3.1187629716
 H          0.0961125587       -0.8758220418       -3.9298272416
 H         -1.1158630614        0.0609213359       -2.9695195094
 H         -1.2005478811       -2.9996251529       -3.4994116065
 H         -2.4053593612       -2.0632466652       -2.5251231343
 H          0.6185855889       -2.2837721663       -1.9431683948
 O         -3.0557854711       -2.4214375221        0.4324791449
