  62
        -98.93814152
 C         -0.2059524246       -1.7269154217       -1.1095824470
 C         -1.3719406055       -2.1943332177       -0.4544371057
 C         -2.5966841535       -1.3953429448       -0.6128635763
 C         -2.5539706710       -0.2720022260       -1.3481658480
 C         -3.6738548688        0.6838137963       -1.6781486889
 C         -4.6430578472        1.0630396306       -0.5512613090
 C         -4.0224787263        1.1384554711        0.8516914606
 H         -2.9316272164        1.1110914383        0.7987977700
 H         -4.2972113836        2.0904442126        1.3115346092
 C         -4.5011575086        0.0162556038        1.7757317826
 H         -4.3367401173        0.3247566050        2.8110984520
 H         -5.5763903191       -0.1237512237        1.6394418834
 C         -3.7898584922       -1.3219912783        1.5863509943
 H         -4.2609128237       -2.0535127661        2.2481136956
 H         -2.7467172418       -1.2240778905        1.9019459136
 C         -3.7967496444       -1.8746111905        0.1510399851
 H         -3.7038367671       -2.9627360107        0.2081132968
 H         -4.7255133940       -1.6310014089       -0.3600629248
 H         -5.4720455190        0.3565171027       -0.5314826274
 H         -5.0654943649        2.0350271112       -0.8129736803
 H         -4.2446245903        0.2623835665       -2.5112528380
 H         -3.1784650467        1.5834653445       -2.0513855206
 O         -1.4159766403        0.1402313301       -1.9691174493
 C         -0.2105104420       -0.5412487028       -1.8436529989
 O          0.7324244791        0.0118546439       -2.4366563802
 O         -1.3896703778       -3.2547534266        0.2288790460
 C          1.0724065435       -2.5039244145       -0.8442153965
 C          1.6504418354       -2.0404391840        0.4702781525
 C          2.1245832836       -2.9325405137        1.4241402036
 C          2.5924337454       -2.4715227930        2.6429349126
 C          2.5639746991       -1.1217995225        2.9468170906
 C          2.0884423209       -0.2233752427        1.9988070394
 C          1.6714823790       -0.6844689036        0.7610658604
 H          1.3189821404        0.0227736962        0.0272356495
 N          2.0060216545        1.1541745579        2.2532672873
 S          0.6637606563        1.9791483504        1.6705992968
 O          0.5515107598        3.1375100720        2.5354573350
 O         -0.5019665259        1.1277369733        1.6155930787
 C          1.1144764169        2.5353105467        0.0423637857
 C          2.4420881972        2.7201115728       -0.2852438353
 C          2.7572048977        3.1856581700       -1.5512759462
 C          1.7474482879        3.4631023412       -2.4588365161
 C          0.4192284676        3.2804635852       -2.1107580251
 C          0.0973365971        2.8137312680       -0.8474780742
 H         -0.9230629132        2.6386227210       -0.5427883034
 H         -0.3658696922        3.4848864361       -2.8210890950
 H          1.9958965083        3.8154902891       -3.4475103368
 H          3.7901570979        3.3218859570       -1.8290147670
 H          3.2035008970        2.4830839920        0.4395174346
 H          2.2384099757        1.4353688987        3.1948942768
 H          2.8942580605       -0.7665712818        3.9110274698
 H          2.9590712640       -3.1734799028        3.3764612835
 H          2.1021039008       -3.9923850540        1.2174262553
 H          0.7575658809       -3.5519352735       -0.7136463747
 C          2.0769449730       -2.4614813689       -1.9842550971
 C          3.3250625751       -1.6372954120       -1.9405671190
 C          3.4125769314       -3.1286308121       -1.8361069268
 H          3.8057870995       -3.6848484844       -2.6733944361
 H          3.6569750608       -3.5474886412       -0.8717926363
 H          3.6366084159       -1.1552968842       -2.8539410400
 H          3.5127927171       -1.0501546611       -1.0552275801
 H          1.5929121823       -2.5477374491       -2.9511752467
