  62
        -98.94478637
 C         -1.9883871104       -0.3355609879       -0.1198723777
 C         -2.9934267799       -0.7690201749        0.7824105053
 C         -4.2035002043        0.0592166064        0.8528609298
 C         -4.2778604350        1.1768320208        0.1074238940
 C         -5.4671575778        2.0899424713        0.0466322108
 C         -6.4276922931        1.6772929169       -1.0775604678
 C         -6.7788458430        0.1894772935       -1.0745079326
 H         -5.8807905924       -0.3889998433       -1.3027754795
 H         -7.4856705020        0.0205804461       -1.8897702496
 C         -7.3857302519       -0.3165703629        0.2415626054
 H         -8.2466550852       -0.9473747722        0.0103896058
 H         -7.7510565897        0.5262913823        0.8293785853
 C         -6.4348350454       -1.1563744546        1.0964536275
 H         -5.9950307202       -1.9478096895        0.4844634067
 H         -7.0213814792       -1.6386788201        1.8829136551
 C         -5.2976572146       -0.3877042890        1.7812474442
 H         -4.8238834113       -1.0644097812        2.4983074467
 H         -5.7071052135        0.4622208993        2.3311063389
 H         -5.9620576998        1.9175787858       -2.0362165647
 H         -7.3403764909        2.2689538403       -0.9858892863
 H         -5.1124579568        3.1042771786       -0.1442147228
 H         -5.9828447584        2.0706319536        1.0048140328
 O         -3.2819294960        1.5797847364       -0.7203617878
 C         -2.1176221673        0.8376273690       -0.8633296514
 O         -1.3060427704        1.3277647264       -1.6720198949
 O         -2.8825056011       -1.8031843847        1.4929133681
 C         -0.7229501302       -1.1718469792       -0.2212642888
 C          0.4067996918       -0.4264580447        0.4446983329
 C          0.6011642084       -0.5562454363        1.8165944154
 C          1.6143682529        0.1342039882        2.4560334900
 C          2.4534676491        0.9703343817        1.7407275332
 C          2.2608686443        1.1125581890        0.3730386522
 C          1.2521141825        0.4086913044       -0.2701061743
 H          1.1029077944        0.5409758799       -1.3299525663
 N          3.1199105594        1.9545490370       -0.3589766706
 S          4.7590899353        1.6525977131       -0.1939792164
 O          5.2447149204        2.2727705180        1.0136320121
 O          5.3656491526        2.1084720434       -1.4250051462
 C          4.8709740496       -0.1226252290       -0.0504981785
 C          4.4777274259       -0.8859675815       -1.1320608305
 C          4.4943905202       -2.2662282922       -1.0197354111
 C          4.8982792226       -2.8568570224        0.1679943419
 C          5.2934482868       -2.0769031738        1.2433643380
 C          5.2774865307       -0.6952646312        1.1370472837
 H          5.5725011071       -0.0513675082        1.9492645597
 H          5.6082418857       -2.5393625846        2.1649250652
 H          4.9047117831       -3.9319948876        0.2540772631
 H          4.1871998047       -2.8754904283       -1.8545585233
 H          4.1736610492       -0.3945531170       -2.0423653466
 H          2.8616033215        2.0413219008       -1.3311851562
 H          3.2490133722        1.5192006223        2.2184050385
 H          1.7535161803        0.0213177770        3.5203453030
 H         -0.0609565399       -1.2004345554        2.3776784571
 H         -0.9271067187       -2.0726617768        0.3726611356
 C         -0.4082916296       -1.5862359033       -1.6443673398
 C          0.6606306516       -2.6096709196       -1.8833165959
 C         -0.7783453601       -2.9612386155       -2.1093591908
 H         -1.1274199217       -3.0845039820       -3.1237760213
 H         -1.2624496915       -3.6159777413       -1.3997701338
 H          1.3008475557       -2.4926637507       -2.7441562616
 H          1.1557952906       -3.0209193613       -1.0168084251
 H         -0.5061517349       -0.7800505476       -2.3607977744
