  62
        -98.94151218
 C          1.7343161059        0.9032392092        0.2204436093
 C          1.9557528991       -0.4792038571       -0.0214576694
 C          3.2497236566       -0.8438923043       -0.6107149809
 C          4.1299879187        0.1286762526       -0.9084716702
 C          5.5041921174       -0.0965684168       -1.4678864265
 C          6.5451585009       -0.2301263943       -0.3476843149
 C          6.1449115310       -1.2134394947        0.7521989432
 H          5.2736766991       -0.8204620234        1.2812150391
 H          6.9669296587       -1.2501569529        1.4704146151
 C          5.8370428357       -2.6324042389        0.2538534340
 H          6.3248918011       -3.3495253999        0.9174734432
 H          6.2584433745       -2.7748775747       -0.7419029496
 C          4.3491608763       -2.9877662242        0.2303067284
 H          3.9025716053       -2.7565862218        1.2005691952
 H          4.2605880508       -4.0666279401        0.0777036971
 C          3.5154629979       -2.3020116254       -0.8596289307
 H          2.5343735237       -2.7850434259       -0.8818601402
 H          3.9917629814       -2.4456009682       -1.8316382407
 H          6.6915543126        0.7519968630        0.1078588445
 H          7.4920104870       -0.5428554545       -0.7916947601
 H          5.7649309299        0.7583278386       -2.0940933559
 H          5.4977202612       -0.9953761413       -2.0814671543
 O          3.8770220231        1.4415126033       -0.6869921634
 C          2.6847865150        1.8670921695       -0.1168425312
 O          2.6212901400        3.1047281835        0.0216968741
 O          1.1064518106       -1.3690573208        0.2511613827
 C          0.4016470521        1.2689110964        0.8494183513
 C         -0.6067992334        1.7185509313       -0.1810046564
 C         -0.4037980540        2.8555808711       -0.9559116587
 C         -1.3620987396        3.2564016501       -1.8684803960
 C         -2.5440474318        2.5501139463       -2.0094796641
 C         -2.7560880598        1.4126002665       -1.2399652105
 C         -1.7807938203        0.9980584853       -0.3438807494
 H         -1.9427053609        0.1044220865        0.2389990029
 N         -3.9361488308        0.6680946949       -1.3654133926
 S         -4.6345153465       -0.0456775042       -0.0226081945
 O         -6.0205451016       -0.2318342415       -0.3956923855
 O         -4.3967719924        0.7255508529        1.1748509445
 C         -3.8506210500       -1.6387167921        0.0944481233
 C         -3.2946994116       -2.0433477410        1.2913354524
 C         -2.7055266367       -3.2951756983        1.3684566969
 C         -2.6845019711       -4.1166806045        0.2524818947
 C         -3.2509711974       -3.6972684852       -0.9417170621
 C         -3.8418964213       -2.4471686702       -1.0247129513
 H         -4.2943079135       -2.0877029029       -1.9338884914
 H         -3.2307682663       -4.3399082888       -1.8072371980
 H         -2.2214695825       -5.0888244584        0.3147115935
 H         -2.2611812070       -3.6213410041        2.2951643799
 H         -3.3271983084       -1.3706380009        2.1343912874
 H         -4.6252606588        1.0587268256       -1.9909840860
 H         -3.2970689775        2.8753704185       -2.7113289525
 H         -1.1933336635        4.1381901177       -2.4683049349
 H          0.5114680030        3.4150931418       -0.8391887558
 H          0.0254279460        0.3324231398        1.2837193469
 C          0.5013641032        2.2999793574        1.9580109673
 C         -0.6699944886        2.4785736614        2.8758097299
 C          0.5898563545        1.8438210572        3.3818043635
 H          1.2110386596        2.4039428143        4.0646183143
 H          0.5853380316        0.7797102396        3.5682260538
 H         -0.9127541584        3.4757071112        3.2102096052
 H         -1.5354902472        1.8522863154        2.7134762937
 H          1.0612140882        3.1826894315        1.6782969598
