  62
        -98.94046646
 C         -1.9178563369       -1.5213615437       -0.0723318982
 C         -1.6607777947       -0.3249214784       -0.7786764703
 C         -2.8057185932        0.5848285027       -0.9596961910
 C         -4.0071857448        0.2289280084       -0.4731162251
 C         -5.2698735350        1.0442618865       -0.4876592055
 C         -5.4140743226        1.8324228437        0.8255616698
 C         -4.7170427737        3.1926428611        0.8425176352
 H         -5.2656542821        3.8833230834        0.1986215218
 H         -4.7817338209        3.5763307154        1.8633307863
 C         -3.2473074810        3.1880086871        0.4121798406
 H         -2.7341635298        2.3337242736        0.8578482142
 H         -2.7817794491        4.0904060261        0.8132969834
 C         -3.0653280957        3.1735025925       -1.1130814503
 H         -4.0176585904        3.4168732538       -1.5842550121
 H         -2.3683971621        3.9631141910       -1.4015735222
 C         -2.5219160691        1.8613667910       -1.7029135749
 H         -2.8841421365        1.7553455053       -2.7307715424
 H         -1.4298895092        1.9089212561       -1.7614398864
 H         -5.0249425874        1.2082332705        1.6341561587
 H         -6.4758253617        1.9949261169        1.0217925714
 H         -5.2910749396        1.7061300336       -1.3484468948
 H         -6.0995726482        0.3385210338       -0.5637524244
 O         -4.2173979029       -0.9473955326        0.1793840365
 C         -3.1877301953       -1.8412092022        0.4076747462
 O         -3.5197076359       -2.8637723595        1.0404043607
 H          1.9137336926       -2.1076069475       -0.3480717140
 C          1.5961342853       -1.6966221839        0.5950065136
 C          0.2799151249       -1.8057124505        1.0132558491
 C         -0.0796796858       -1.2482309617        2.2389744980
 C          0.8511936850       -0.5928274120        3.0201680799
 C          2.1613069789       -0.4688518690        2.5895569525
 C          2.5315561137       -1.0228653256        1.3712532398
 N          3.8604014582       -0.9283860864        0.9126046653
 S          4.1604408542       -0.1748513115       -0.5549264655
 O          3.5111535872       -0.8945563036       -1.6179581241
 O          5.6033234500       -0.0877081051       -0.6313214652
 C          3.4800217203        1.4630237219       -0.3593923658
 C          2.1192468750        1.6584733856       -0.4841436324
 C          1.6074709119        2.9256575186       -0.2470429780
 C          2.4529160331        3.9659216151        0.1045550903
 C          3.8181156017        3.7514233226        0.2222016330
 C          4.3371986931        2.4876370363       -0.0047900353
 H          5.3911772574        2.2742304050        0.0734201412
 H          4.4759199859        4.5618293034        0.4923655678
 H          2.0452248235        4.9479416816        0.2862654628
 H          0.5440905109        3.0833351920       -0.3378921742
 H          1.4733775767        0.8416727715       -0.7663040900
 H          4.4992306609       -0.5604331139        1.6044484189
 H          2.8906897972        0.0493503773        3.1936788086
 H          0.5554806100       -0.1682549333        3.9675641974
 H         -1.1062387886       -1.3394623859        2.5684966055
 C         -0.7875322955       -2.4983553008        0.2006552580
 H         -1.2209497174       -3.2984285561        0.8183145112
 C         -0.2784118357       -3.1038184946       -1.0896572761
 C          0.3869566567       -4.4459248268       -1.0726387504
 C         -0.9832673820       -4.2955637814       -1.6608297614
 H         -1.0963123636       -4.3630781036       -2.7325247437
 H         -1.8245984927       -4.6872795396       -1.1073449205
 H          1.2184374698       -4.6157392467       -1.7401572697
 H          0.4773593449       -4.9469304682       -0.1205144570
 H          0.0919978244       -2.3626384572       -1.7888449473
 O         -0.5263212136       -0.0184070305       -1.2299397185
