  62
        -98.94023478
 C         -1.9976454098       -1.1891703809       -0.4478494601
 C         -1.5522458001        0.0224907490       -1.0254501506
 C         -2.3787796804        1.2176925689       -0.7711593410
 C         -3.4647777503        1.1222729989        0.0129824591
 C         -4.4768683105        2.1822115688        0.3729437888
 C         -3.9642560109        3.5965708090        0.6683814383
 C         -2.6061221908        3.6575910996        1.3825292882
 H         -2.6938819109        4.3003467499        2.2607540979
 H         -2.3181835506        2.6649067898        1.7346793485
 C         -1.4895625510        4.2161515796        0.4978562079
 H         -1.8730648613        5.0770781693       -0.0551791324
 H         -0.6785228311        4.5695103000        1.1395666977
 C         -0.8809472309        3.2135262994       -0.4808562318
 H         -0.1592729810        3.7484660793       -1.1041039421
 H         -0.3247667306        2.4576183397        0.0803669084
 C         -1.8871441308        2.4930969888       -1.3946101415
 H         -1.3638718707        2.1998344586       -2.3087611614
 H         -2.7112189209        3.1493331785       -1.6650444417
 H         -3.9046094011        4.1654027087       -0.2583819919
 H         -4.7220859110        4.0816216791        1.2862683282
 H         -4.9933562204        1.7907095190        1.2530512890
 H         -5.2136213406        2.2314640283       -0.4348000211
 O         -3.8363495800       -0.0574885410        0.5881426096
 C         -3.1264555397       -1.2233803109        0.3746321300
 O         -3.6001231894       -2.2212043408        0.9567609304
 O         -0.5286990402        0.1294333990       -1.7506848707
 C         -1.2861619494       -2.5240581608       -0.6149716697
 C         -0.2048054093       -2.6709681901        0.4297149003
 C         -0.2430841990       -3.7166327998        1.3440569907
 C          0.7288918311       -3.8303817692        2.3218577806
 C          1.7384305909       -2.8910485089        2.4177331702
 C          1.7855117706       -1.8386657492        1.5083987698
 C          0.8325529205       -1.7512571898        0.5047333899
 H          0.8733072302       -0.9363774201       -0.1981086804
 N          2.7998735403       -0.8754292589        1.5945266294
 S          2.4956091199        0.7599107409        1.3443897988
 O          3.2989531498        1.4327700715        2.3471651385
 O          1.0825404298        1.0444639005        1.3692716888
 C          3.2288939297        1.0723786505       -0.2481799513
 C          4.6064842497        1.1870204908       -0.2863877815
 C          5.2316377895        1.4088006305       -1.5014476216
 C          4.4719535194        1.5125597199       -2.6575089516
 C          3.0924978994        1.3970198496       -2.6020046314
 C          2.4590050096        1.1736430299       -1.3878942613
 H          1.3863252796        1.0704060796       -1.3315447112
 H          2.4960999393        1.4742678591       -3.4971880714
 H          4.9565756893        1.6853055897       -3.6056644117
 H          6.3050838895        1.4996161208       -1.5448277017
 H          5.1558878797        1.1148066613        0.6375782185
 H          3.4242153604       -1.0033640585        2.3776595094
 H          2.4841889010       -2.9638009584        3.1952829502
 H          0.6899520414       -4.6469839290        3.0269672109
 H         -1.0530763388       -4.4298162900        1.2976164910
 H         -2.0477053792       -3.2899188309       -0.4112305394
 C         -0.7324969995       -2.7619853711       -2.0056494597
 C         -0.5067954092       -4.1710630912       -2.4615270992
 C         -1.6180443594       -3.3593674817       -3.0554538094
 H         -1.5190811196       -3.0088415521       -4.0716473995
 H         -2.6332534593       -3.6010043919       -2.7748855392
 H          0.3585716809       -4.3817478712       -3.0706576291
 H         -0.7695756789       -4.9663920911       -1.7803987389
 H         -0.0240337997       -2.0094171311       -2.3232695400
