  62
        -98.93941557
 C         -2.6653650174       -0.8694257132        0.3322872829
 C         -2.6861349386        0.2450083772        1.2060677936
 C         -3.4823823934        1.3975509769        0.7670085219
 C         -4.1178488646        1.3425203829       -0.4180232020
 C         -4.9282827947        2.4587049590       -1.0094016407
 C         -4.0654757215        3.3620740599       -1.9013714750
 C         -2.7613096084        3.8132786160       -1.2439351255
 H         -2.1188401412        2.9423419614       -1.0934862062
 H         -2.2506468945        4.4698000045       -1.9516455530
 C         -2.9451437972        4.5457684145        0.0926604716
 H         -2.3025362263        5.4286149454        0.0992860302
 H         -3.9743797960        4.8939001046        0.1858316417
 C         -2.5774633678        3.7181227675        1.3256602464
 H         -1.5818239259        3.2869533297        1.1932785250
 H         -2.5307790460        4.3914881875        2.1856619951
 C         -3.5489161787        2.5863368701        1.6844740300
 H         -4.5671061362        2.9773948554        1.7339634376
 H         -3.2750612276        2.2151787503        2.6764701979
 H         -3.8173362379        2.8132530871       -2.8127439545
 H         -4.6561580093        4.2362888988       -2.1809111088
 H         -5.7248758598        2.0210960089       -1.6133568391
 H         -5.3737575784        3.0417676240       -0.2056913488
 O         -4.0530589285        0.2673198716       -1.2424345119
 C         -3.3170235978       -0.8587841721       -0.9016701234
 O         -3.3333409469       -1.7555115031       -1.7645007472
 O         -2.0667427257        0.2736418233        2.3049128188
 C         -1.8619763617       -2.0918824813        0.7449564838
 C         -0.6283590977       -2.1806812270       -0.1201260062
 C         -0.4381701898       -3.1509915318       -1.0938808156
 C          0.7130172008       -3.1500305097       -1.8635156766
 C          1.6945390461       -2.1939411958       -1.6783571536
 C          1.5178756045       -1.2227608847       -0.7001920656
 C          0.3631036641       -1.2239310389        0.0670095275
 H          0.2185431092       -0.4664433908        0.8279875515
 N          2.5104546313       -0.2344746889       -0.5020296243
 S          4.0477464006       -0.8071895543       -0.0833507109
 O          4.5948884762       -1.5216343946       -1.2074307445
 O          3.9829299107       -1.5401537724        1.1634425047
 C          4.9289202884        0.7236989854        0.1464435956
 C          5.3930223109        1.3916840170       -0.9705216638
 C          6.0641780095        2.5920534566       -0.8013748507
 C          6.2584969409        3.1014493582        0.4741152785
 C          5.7872614264        2.4190433316        1.5854336021
 C          5.1137961677        1.2184159972        1.4230410605
 H          4.7388508809        0.6496536497        2.2590713146
 H          5.9421144213        2.8157733175        2.5759376023
 H          6.7831557878        4.0348822646        0.6035460231
 H          6.4343123333        3.1249541165       -1.6623314618
 H          5.2271011294        0.9531754902       -1.9405073722
 H          2.2185996842        0.4273619742        0.2068048582
 H          2.5985634291       -2.1975828254       -2.2645080720
 H          0.8474895675       -3.9070170947       -2.6215718405
 H         -1.1947622880       -3.9000390022       -1.2584433783
 H         -1.5322075977       -1.8856947274        1.7735139995
 C         -2.7034801643       -3.3490731411        0.7505948415
 C         -2.2260615926       -4.5489689298        1.5109702985
 C         -3.3945583448       -3.7580903848        2.0153445193
 H         -4.3806283818       -4.1920818908        1.9454605047
 H         -3.2529696614       -3.1350981946        2.8865135790
 H         -2.4086571495       -5.5288114398        1.0970641312
 H         -1.2878050688       -4.4627827357        2.0384231917
 H         -3.2339251040       -3.5121881950       -0.1795082393
