  62
        -98.94429371
 C          1.7694291043        1.2752036082        0.2679874853
 C          1.3466074465        0.1810836574       -0.5188724755
 C          1.9118082345       -1.1367508719       -0.1816756917
 C          2.7968364930       -1.2209646246        0.8284767015
 C          3.5296898639       -2.4497162638        1.2914060936
 C          4.6924119824       -2.8353320332        0.3545076571
 C          4.4370208771       -2.6065780443       -1.1347587893
 H          4.1125318652       -1.5754478722       -1.2869100974
 H          5.3894351527       -2.7264367713       -1.6578453340
 C          3.4302902856       -3.5574394376       -1.7788375241
 H          3.3077689352       -3.2533480515       -2.8212331359
 H          3.8443657456       -4.5686563087       -1.7727349614
 C          2.0515300957       -3.6101611912       -1.1226579677
 H          1.4129656912       -4.2399544100       -1.7496267153
 H          2.1129698029       -4.1000887255       -0.1543620639
 C          1.3347611040       -2.2675488853       -0.9964371160
 H          1.1721004774       -1.8544301564       -1.9980920550
 H          0.3351992038       -2.4483635551       -0.5778593947
 H          4.9450542321       -3.8826021235        0.5263880766
 H          5.5574541181       -2.2295338403        0.6337961560
 H          3.9371498842       -2.2248192494        2.2794899368
 H          2.8221851552       -3.2667503256        1.4062562305
 O          3.1960534270       -0.1346526961        1.5488852081
 C          2.6722429495        1.1227124506        1.3168840652
 O          3.0851488485        2.0103074712        2.0933887128
 H         -0.3543315182        1.1538744381        1.6269971491
 C         -0.9489152436        1.7419090409        0.9424588393
 C         -0.3265068961        2.5831689993        0.0289632223
 C         -1.1239408592        3.3330642916       -0.8275203094
 C         -2.5028329674        3.2189551873       -0.7860323631
 C         -3.1141959963        2.3397979665        0.0890094278
 C         -2.3255540465        1.5926175285        0.9555979539
 N         -2.8915329260        0.6573420349        1.8496164449
 S         -2.5226946587       -0.9548850261        1.5657256389
 O         -3.2880529666       -1.6924545192        2.5492311567
 O         -1.0964402872       -1.1496350656        1.5929806333
 C         -3.1909417498       -1.2743428820       -0.0578463998
 C         -2.4846436341       -0.8808349700       -1.1767016138
 C         -3.0612577243       -1.0685760638       -2.4244271715
 C         -4.3211310882       -1.6359685281       -2.5322276890
 C         -5.0166785180       -2.0245128696       -1.3968073988
 C         -4.4501175933       -1.8378101469       -0.1468793811
 H         -4.9500374154       -2.1264923390        0.7637597248
 H         -5.9958723245       -2.4677012997       -1.4813328369
 H         -4.7621199009       -1.7767847549       -3.5064807429
 H         -2.5140725443       -0.7640512541       -3.3020892214
 H         -1.5020846946       -0.4450472455       -1.0753901802
 H         -3.8944586647        0.7471582676        1.9452672048
 H         -4.1880185030        2.2281609825        0.1027857936
 H         -3.1078334273        3.8080217011       -1.4580900466
 H         -0.6632368398        4.0043281213       -1.5338031567
 C          1.1820582829        2.6517366588        0.0186821153
 H          1.5072916994        3.2802917498        0.8613423876
 C          1.7408555989        3.2306603770       -1.2664748620
 C          1.9600778947        4.7066160561       -1.4056284923
 C          3.1326682038        3.7851257035       -1.2611767542
 H          3.7624369149        3.6082096797       -2.1201420484
 H          3.6644555830        3.7717674645       -0.3205760025
 H          1.7887316969        5.1653439895       -2.3678395915
 H          1.7046392926        5.3327128842       -0.5640694597
 H          1.4279432035        2.6723066793       -2.1414258339
 O          0.5299892317        0.3001016084       -1.4714113527
