  62
        -98.94472522
 C         -1.5063936983       -1.7696401104       -0.4758607008
 C         -1.5373771363       -0.5943528550       -1.2675484119
 C         -2.7413561244        0.2426093336       -1.1285210781
 C         -3.7126980505       -0.1223268963       -0.2746599010
 C         -4.9616657661        0.6636647464       -0.0016765274
 C         -4.7698607463        1.6332354964        1.1722312784
 C         -3.5138596813        2.4990656295        1.0673147182
 H         -3.5132446853        3.1763564863        1.9247374082
 H         -2.6242811577        1.8711874468        1.1625389271
 C         -3.4087072182        3.3160696193       -0.2276778758
 H         -4.3882857176        3.3915250294       -0.7027246684
 H         -3.0894881717        4.3292839806        0.0257650693
 C         -2.3915448558        2.7681835741       -1.2303535369
 H         -2.2095110057        3.5368968256       -1.9869016877
 H         -1.4462222062        2.5831325431       -0.7134058448
 C         -2.8094542802        1.4883486017       -1.9663404934
 H         -3.8098287143        1.6156189820       -2.3866021080
 H         -2.1067767190        1.3348985670       -2.7907981068
 H         -4.7077645279        1.0523618473        2.0955301921
 H         -5.6500977956        2.2763448939        1.2340539118
 H         -5.2405860658        1.2142375907       -0.8981564282
 H         -5.7602823591       -0.0379114308        0.2465225482
 O         -3.6478455255       -1.2534690684        0.4746458865
 C         -2.5453353621       -2.0872093127        0.4027112609
 O         -2.6093904821       -3.0836116920        1.1524626389
 H          0.4232688445       -0.2769316206        0.3547256096
 C          0.9197075882       -1.0523103931        0.9126919920
 C          0.6379874164       -2.3821927592        0.6382496416
 C          1.2643792754       -3.3671483319        1.3935056071
 C          2.1583364830       -3.0216097639        2.3916094050
 C          2.4355132253       -1.6941490295        2.6624857982
 C          1.7986976928       -0.6992760971        1.9261961531
 N          2.0148282059        0.6467839062        2.2256050161
 S          1.6775275429        1.9264116096        1.2131631798
 O          2.1720722885        3.0723433615        1.9472963710
 O          0.2785455932        1.9481812705        0.8735979790
 C          2.7074609397        1.6806150777       -0.2210111905
 C          4.0570065500        1.9395321917       -0.0634794188
 C          4.9098458838        1.7537664504       -1.1375115224
 C          4.4008116517        1.3150925519       -2.3513806348
 C          3.0461804794        1.0641249075       -2.4932625344
 C          2.1849872009        1.2438342166       -1.4200771979
 H          1.1304525040        1.0366803958       -1.5178988252
 H          2.6421647996        0.7238775058       -3.4331303349
 H          5.0624885286        1.1703634602       -3.1908300228
 H          5.9638943390        1.9519895822       -1.0279325480
 H          4.4069936071        2.2995945577        0.8903141200
 H          2.7412166966        0.8469858050        2.8942724201
 H          3.1216495742       -1.4249014376        3.4506245855
 H          2.6397862020       -3.7943692992        2.9713916573
 H          1.0300300456       -4.4055602755        1.2110690461
 C         -0.3375076218       -2.7417942082       -0.4560325628
 H         -0.7745085288       -3.7190288614       -0.1926198034
 C          0.3396479510       -2.8974282517       -1.8110871564
 C          1.6832602004       -2.3194046449       -2.1254579362
 C          1.5271949454       -3.8004056488       -1.9702406779
 H          1.5831934395       -4.4223575694       -2.8507650353
 H          1.9360390793       -4.2547926588       -1.0812020845
 H          1.8321258651       -1.9104927872       -3.1123339648
 H          2.1944596080       -1.7720058996       -1.3483062845
 H         -0.3828281743       -2.9011242073       -2.6204446378
 O         -0.6283536696       -0.2450328343       -2.0625432067
