  62
        -98.94033110
 C         -0.2765852532       -1.8275376863        0.7090709267
 C          0.7404621620       -2.4465403414       -0.0602117860
 C          2.1223225584       -2.0008269749        0.1728180565
 C          2.3565895157       -1.0471941911        1.0893876316
 C          3.6773862154       -0.4593493136        1.5197736358
 C          4.6879854242       -0.1037124977        0.4207494605
 C          4.0790098484        0.3506203576       -0.9142870593
 H          3.0110141380        0.5556191779       -0.8091204599
 H          4.5556150026        1.2836767273       -1.2234755720
 C          4.2757908811       -0.6705056090       -2.0373433871
 H          5.2918541534       -1.0690510148       -1.9827892385
 H          4.1735240297       -0.1563542192       -2.9961814966
 C          3.2786609980       -1.8275763397       -2.0389981276
 H          2.2833688882       -1.4456314400       -2.2858365344
 H          3.5650064145       -2.5211499013       -2.8338599078
 C          3.1692064852       -2.6056545098       -0.7167966551
 H          2.8238213536       -3.6170578280       -0.9481791088
 H          4.1337796016       -2.6721076879       -0.2184261587
 H          5.3384232678       -0.9578380062        0.2356631827
 H          5.3205856312        0.6918239840        0.8187774153
 H          3.4171250218        0.4401305680        2.0825894757
 H          4.1462541903       -1.1546951607        2.2223363756
 O          1.3554590101       -0.4907421712        1.8227594899
 C          0.0223562777       -0.8254748302        1.6315980806
 O         -0.7565573680       -0.1620630156        2.3434123603
 H         -1.2726765937        0.4337815121        0.0281311496
 C         -1.8915833711        0.0215868666       -0.7515673594
 C         -2.2412233082       -1.3187257737       -0.7199741432
 C         -3.0636733651       -1.8121551087       -1.7265041232
 C         -3.5020985090       -0.9838957813       -2.7445633296
 C         -3.1004415824        0.3394881356       -2.8023673745
 C         -2.2797623496        0.8406392577       -1.7997445508
 N         -1.8118868487        2.1635748345       -1.8115506706
 S         -0.2336906132        2.4470770684       -1.3138084329
 O          0.1353600019        3.6836273979       -1.9752592584
 O          0.6233927223        1.3162849385       -1.5865491756
 C         -0.3248467159        2.7564948572        0.4356494882
 C          0.8302291831        2.5993084334        1.1741863148
 C          0.8005954890        2.8673440825        2.5322848176
 C         -0.3781213394        3.2896013620        3.1248154733
 C         -1.5276370344        3.4490445498        2.3679860631
 C         -1.5047715696        3.1841238976        1.0084328233
 H         -2.3851429084        3.2838154852        0.3950033294
 H         -2.4453601449        3.7696693567        2.8345551188
 H         -0.4017695555        3.4860967655        4.1851771179
 H          1.6921391261        2.7332586460        3.1240952294
 H          1.7226336653        2.2518149189        0.6765685055
 H         -2.0473708532        2.6995955231       -2.6342973744
 H         -3.4092536890        0.9753232671       -3.6180108965
 H         -4.1409689946       -1.3792701346       -3.5195458156
 H         -3.3430281480       -2.8549060977       -1.7203843084
 C         -1.7054259939       -2.2154779049        0.3744977576
 H         -1.6485275684       -3.2345776831       -0.0336680036
 C         -2.6480521194       -2.2241584907        1.5613952037
 C         -3.8356262276       -3.1375540015        1.5557050326
 C         -2.6792378633       -3.4173553590        2.4669248532
 H         -2.7987177063       -3.2534788345        3.5269731767
 H         -2.0270887996       -4.2438735433        2.2243565083
 H         -3.9714618110       -3.7844153191        0.7025659665
 H         -4.7575489269       -2.7820419078        1.9890699983
 H         -2.7610374407       -1.2507891006        2.0204139349
 O          0.5003135825       -3.3514200535       -0.9059276632
