  62
        -98.94471866
 C          2.0233661914        1.3734332287        0.2991680236
 C          2.6460278837        0.7476889264       -0.8079745550
 C          3.7860234530       -0.1248633659       -0.4899286020
 C          4.1700523686       -0.2703423474        0.7913757008
 C          5.2729624431       -1.1743535051        1.2590499809
 C          4.7337610317       -2.5673286051        1.6140171152
 C          3.8316303650       -3.1734936111        0.5385720406
 H          3.5334858028       -4.1657177541        0.8847239615
 H          2.9201640458       -2.5762615634        0.4565770895
 C          4.4840126915       -3.2898070179       -0.8461541425
 H          5.5681535227       -3.2181149842       -0.7515665794
 H          4.2586582942       -4.2762820954       -1.2568810332
 C          3.9949991333       -2.2602771894       -1.8668686674
 H          2.9020284585       -2.2648106605       -1.8984796337
 H          4.3506986466       -2.5662023140       -2.8543300533
 C          4.4647029190       -0.8180615421       -1.6373486185
 H          5.5494541888       -0.7990116417       -1.5147973806
 H          4.2079452378       -0.2403984751       -2.5301079078
 H          5.5813952943       -3.2305428711        1.7952921097
 H          4.1585502295       -2.4909088899        2.5398242759
 H          6.0272312707       -1.2531017456        0.4787700208
 H          5.7267875778       -0.7331673944        2.1480391832
 O          3.5523503879        0.3551997619        1.8262975738
 C          2.4559132608        1.1748313090        1.6094133294
 O          1.9575563531        1.6549489674        2.6484541776
 H         -0.0390637827       -0.1522363917        0.7372168865
 C         -0.5970042057        0.2359198550       -0.1067302246
 C         -0.2843330774        1.4975671467       -0.5991019650
 C         -1.0218168730        1.9907971039       -1.6669439817
 C         -2.0172131033        1.2221626601       -2.2467040610
 C         -2.3054236329       -0.0436324402       -1.7723571696
 C         -1.5894766112       -0.5372796358       -0.6883368670
 N         -1.8857870654       -1.8145684338       -0.1842946779
 S         -3.4946998497       -2.2393908274       -0.0094198600
 O         -3.5150456289       -3.2066643533        1.0656149574
 O         -4.0164529998       -2.6953085380       -1.2737021480
 C         -4.3302179757       -0.7407515439        0.4804588110
 C         -5.3462884369       -0.2313613009       -0.3020608194
 C         -5.9643421282        0.9469313901        0.0852256625
 C         -5.5545107238        1.5940618076        1.2403667208
 C         -4.5340709041        1.0678860619        2.0179983533
 C         -3.9145708975       -0.1110707547        1.6369995756
 H         -3.1211824856       -0.5466614088        2.2235656602
 H         -4.2153875642        1.5719635108        2.9163948128
 H         -6.0322051116        2.5137377469        1.5390034482
 H         -6.7592291148        1.3574021930       -0.5162450974
 H         -5.6304590460       -0.7653050900       -1.1941777294
 H         -1.3445912986       -2.0753727040        0.6262598324
 H         -3.0613972494       -0.6622242145       -2.2280624845
 H         -2.5729834166        1.6130075315       -3.0850754883
 H         -0.8099552244        2.9733183056       -2.0546949785
 C          0.8204651018        2.2727008098        0.0783827061
 H          0.4689849194        2.5614583926        1.0798868333
 C          1.2321394363        3.5225311127       -0.6714064355
 C          0.5008616875        4.8116750560       -0.4513545143
 C          1.8873632166        4.6350751506        0.0886216404
 H          2.6986363462        5.1719734394       -0.3796315562
 H          2.0116541289        4.5009079682        1.1536443213
 H          0.3616680905        5.4757086402       -1.2910484678
 H         -0.3187533693        4.8086096564        0.2509942605
 H          1.6080185548        3.3063606751       -1.6646972744
 O          2.2695107968        0.9045630397       -1.9979767849
