  62
        -98.94602464
 C         -1.3405481787       -1.1667891129       -0.1025932478
 C         -2.1454304542       -0.6003939785        0.9225822648
 C         -2.8924436798        0.6114154941        0.5715166168
 C         -2.7750904680        1.1298460063       -0.6640123177
 C         -3.4466779691        2.3772505164       -1.1715370085
 C         -4.8820589084        2.1543706777       -1.6671733939
 C         -5.9177735767        1.9071501424       -0.5695726083
 H         -5.8473178801        2.6965742195        0.1793543937
 H         -6.9021301960        1.9877137227       -1.0350098440
 C         -5.8049344776        0.5358515441        0.1114387363
 H         -6.7973655916        0.0863776563        0.1908090992
 H         -5.2018840771       -0.1306845248       -0.5095295538
 C         -5.2108603082        0.5734878669        1.5195956357
 H         -5.8777223285        1.1281651430        2.1833196771
 H         -5.1443468314       -0.4524819425        1.8902223231
 C         -3.8118100502        1.1983923847        1.5991398047
 H         -3.3935877565        0.9777027131        2.5839576453
 H         -3.8770154660        2.2795294551        1.4786687324
 H         -5.1776354359        3.0482272121       -2.2214526307
 H         -4.8845871003        1.3149769245       -2.3665171750
 H         -3.4459475076        3.1392729917       -0.3912665607
 H         -2.8461840355        2.7369557674       -2.0103523686
 O         -1.9820511535        0.5698558040       -1.6139099981
 C         -1.2538046557       -0.5862207565       -1.3676266001
 O         -0.5870170107       -0.9611107088       -2.3540767675
 O         -2.2341517343       -1.0888208694        2.0787349445
 C         -0.5554018690       -2.4169074293        0.2655408291
 C          0.8704715148       -2.0345345899        0.5805328432
 C          1.3498537153       -2.0638656184        1.8849114363
 C          2.6346068189       -1.6374765747        2.1753572031
 C          3.4590247765       -1.1535946151        1.1753421458
 C          2.9833889842       -1.1131174367       -0.1287668205
 C          1.7086772728       -1.5699223559       -0.4231112866
 H          1.3435410277       -1.5178874613       -1.4377308242
 N          3.7839138177       -0.5393800714       -1.1403483811
 S          4.2339011532        1.0468520967       -0.8245191444
 O          4.3207296454        1.6993249612       -2.1120222230
 O          5.4451737597        1.0454003737       -0.0422266954
 C          2.8997217409        1.7273784687        0.1502589139
 C          1.6369663459        1.7842274638       -0.4060378843
 C          0.5873445334        2.2585748373        0.3632769010
 C          0.8136981088        2.6627257856        1.6696990706
 C          2.0880041657        2.6055648102        2.2116207564
 C          3.1418750479        2.1311143044        1.4474899054
 H          4.1467290493        2.0624229515        1.8310075742
 H          2.2607606340        2.9215765301        3.2276432574
 H         -0.0113584850        3.0203049068        2.2651542872
 H         -0.4060799481        2.2980698032       -0.0555967162
 H          1.4797172213        1.4583934401       -1.4228949547
 H          3.3526225856       -0.5963716035       -2.0529079783
 H          4.4523550014       -0.7893085948        1.3826130086
 H          2.9930325771       -1.6688055499        3.1926589535
 H          0.6985764953       -2.4031138673        2.6768667304
 H         -1.0170444485       -2.7827695034        1.1920970043
 C         -0.6343420550       -3.5147909594       -0.7753467394
 C         -0.3240284131       -4.9227135354       -0.3670727142
 C         -1.7339282116       -4.5284916275       -0.6873186733
 H         -2.1770778733       -4.8881733324       -1.6038784994
 H         -2.4355886894       -4.4364795459        0.1289287825
 H          0.2041692671       -5.5561393005       -1.0630346993
 H         -0.0700547020       -5.0985074796        0.6672453902
 H         -0.3326162130       -3.1998546098       -1.7656568494
