  62
        -98.93264294
 C         -1.7758817499       -0.7197690193        0.5160725716
 C         -3.0923566398       -0.7038795391        1.0422735619
 C         -3.9363560397        0.4470184911        0.6810513322
 C         -3.4176239597        1.4295175610       -0.0746284979
 C         -4.0729660596        2.7073640212       -0.5355904776
 C         -5.5246080098        2.6231174315       -1.0257644773
 C         -5.8929574002        1.3160148516       -1.7429545672
 H         -6.3626255304        1.5556435617       -2.6988156471
 H         -4.9912185303        0.7405931014       -1.9603257075
 C         -6.8708011701        0.4510008017       -0.9438843071
 H         -7.6431914499        1.0964109118       -0.5200464968
 H         -7.3647234604       -0.2435262482       -1.6277840670
 C         -6.2468384200       -0.3824623485        0.1748405827
 H         -7.0574776999       -0.8572906884        0.7326847329
 H         -5.6430287502       -1.1865059886       -0.2554045675
 C         -5.3580981896        0.3928376913        1.1611236126
 H         -5.3366922694       -0.1635806288        2.1021418825
 H         -5.7568747494        1.3856502413        1.3538183827
 H         -6.2026794395        2.7703454515       -0.1863764071
 H         -5.6768975698        3.4649907415       -1.7033240972
 H         -4.0131254493        3.4333080811        0.2805322424
 H         -3.4354871198        3.0779226511       -1.3420944278
 O         -2.1278458498        1.4012263509       -0.5131706482
 C         -1.2762176399        0.3388824407       -0.2412859285
 O         -0.1337279700        0.4792674405       -0.7156788088
 O         -3.5397706797       -1.6092572791        1.7941887519
 C         -0.9046700600       -1.9185341894        0.8448849412
 C          0.4874296401       -1.4708272297        1.2086296809
 C          0.6566721306       -0.6494540998        2.3205711009
 C          1.9055336707       -0.1776251800        2.6747150106
 C          3.0182823605       -0.5159301702        1.9239893503
 C          2.8617060600       -1.3386522401        0.8182160803
 C          1.6080693199       -1.8195438098        0.4701643306
 H          1.5112277196       -2.4310809198       -0.4137765594
 N          4.0127956098       -1.6468590602        0.0399659600
 S          4.2694879397       -0.5449353602       -1.2190663800
 O          3.2183590694       -0.6456522699       -2.2089778097
 O          5.5991654295       -0.8306689903       -1.7165180304
 C          4.2440455601        1.0352622398       -0.4094177199
 C          3.0395997903        1.6903548800       -0.2429544395
 C          3.0361252707        2.9052960899        0.4254252406
 C          4.2214022609        3.4365518597        0.9105634703
 C          5.4210801107        2.7639364895        0.7315380899
 C          5.4348337203        1.5486092096        0.0668616998
 H          6.3398466902        0.9874891894       -0.0993903904
 H          6.3408477909        3.1807531193        1.1091673397
 H          4.2081685212        4.3811918297        1.4313231704
 H          2.1009449408        3.4237850001        0.5664421108
 H          2.1301725401        1.2490532102       -0.6224904493
 H          3.9478499395       -2.5627426102       -0.3874497701
 H          3.9994104906       -0.1525483703        2.1828161501
 H          2.0147091010        0.4617669199        3.5371192407
 H         -0.2157220293       -0.3733467697        2.8974442112
 H         -1.3694242899       -2.3582342594        1.7433396013
 C         -0.9250302905       -2.9992313894       -0.2267462588
 C         -2.1130783108       -3.1834426891       -1.1211813485
 C         -0.8230079708       -2.6735586493       -1.6860771988
 H         -0.2448081511       -3.3282524293       -2.3226873990
 H         -0.7512460307       -1.6327328293       -1.9633755888
 H         -2.4206994110       -4.1891794390       -1.3648160185
 H         -2.9340599706       -2.4896450490       -1.0153742683
 H         -0.4307420906       -3.9081434095        0.1040155710
