  62
        -98.93802209
 C         -2.3769523496       -1.2118953384       -0.0916691026
 C         -3.1595351017       -0.4999250097        0.8433683755
 C         -4.0224279546        0.5744495548        0.3138816751
 C         -4.0067709412        0.8216737346       -1.0095534332
 C         -4.7595634391        1.8833545006       -1.7665531909
 C         -4.1451677194        3.2821138260       -1.5939650508
 C         -3.7366784868        3.6340206456       -0.1657540426
 H         -3.0230774327        2.8914329644        0.1970066284
 H         -3.2154078646        4.5946305612       -0.1958491720
 C         -4.8883532086        3.7591171076        0.8289583370
 H         -4.4619815605        4.0934509400        1.7784453748
 H         -5.5765066285        4.5338416810        0.4836744487
 C         -5.6880300598        2.4813174213        1.0913708177
 H         -6.3017019611        2.6587394438        1.9794449726
 H         -6.3769592661        2.2758440291        0.2766306928
 C         -4.8411462870        1.2477799229        1.3892625568
 H         -4.1406451080        1.4811205181        2.1996943834
 H         -5.4958267676        0.4658633277        1.7932342186
 H         -4.8588165464        4.0206538743       -1.9625187681
 H         -3.2498361595        3.3364572980       -2.2180453018
 H         -4.7084323218        1.6099971681       -2.8226818676
 H         -5.8051575260        1.8798106314       -1.4736654999
 O         -3.2191921778        0.1189412092       -1.8733751764
 C         -2.3910405030       -0.9048344495       -1.4517822105
 O         -1.7349818504       -1.4477773856       -2.3597475588
 H         -0.2196963951       -0.0041134051        0.7077598616
 C          0.4516949144       -0.7535132244        0.3046995344
 C         -0.0332656086       -2.0333305753        0.0629749959
 C          0.8446498014       -2.9867293574       -0.4354734882
 C          2.1622447325       -2.6560166127       -0.7023484794
 C          2.6336739797       -1.3762010059       -0.4778914263
 C          1.7684389037       -0.4173418053        0.0330749492
 N          2.2389731639        0.8900179609        0.2596715351
 S          3.5873942934        1.0649608312        1.2489216782
 O          3.6700681552       -0.0026720296        2.2189653079
 O          3.4971159102        2.4085366678        1.7778708920
 C          4.9635700639        0.9746219663        0.1235782408
 C          5.0136962500        1.8792837669       -0.9187956931
 C          6.0826137928        1.8263894909       -1.7990373506
 C          7.0787553398        0.8777098618       -1.6210620178
 C          7.0156188812       -0.0208842436       -0.5670939875
 C          5.9482622863        0.0255230240        0.3162703314
 H          5.8530059980       -0.6559934516        1.1464176507
 H          7.7910921885       -0.7573109959       -0.4304103378
 H          7.9092453310        0.8388664377       -2.3081239455
 H          6.1349512474        2.5231847759       -2.6200495733
 H          4.2214426591        2.6023534756       -1.0192629427
 H          1.5145558246        1.5327737950        0.5462515930
 H          3.6561939017       -1.1128651072       -0.6935390578
 H          2.8306099144       -3.4064233742       -1.0959580366
 H          0.4965089469       -3.9897602529       -0.6190148711
 C         -1.4753877772       -2.3299932049        0.3954909670
 H         -1.5756477662       -2.3302295944        1.4919302862
 C         -1.9580362390       -3.6633586166       -0.1365354208
 C         -1.7455692853       -4.9176351176        0.6558254922
 C         -3.1187540896       -4.3303355558        0.5365868585
 H         -3.8484389132       -4.8381418800       -0.0760026571
 H         -3.5418673531       -3.8351399681        1.3986219199
 H         -1.5346612304       -5.8336479181        0.1248881989
 H         -1.2384184615       -4.8298697338        1.6048935924
 H         -1.9051533792       -3.7217591464       -1.2178905793
 O         -3.1359085560       -0.7402258385        2.0826535288
