  62
        -98.93669880
 C         -1.0671178780       -1.4594014753        0.4719702224
 C         -1.5178825083       -0.8178116116       -0.7047287187
 C         -2.5431792867        0.2313279792       -0.5323548804
 C         -2.9670425289        0.5551357100        0.7024129429
 C         -3.9620239998        1.5941663050        1.1770725212
 C         -4.9154200083        2.2717364303        0.1959185987
 C         -5.9717906342        1.3488720686       -0.4109053146
 H         -6.6774842527        1.0649125875        0.3738806909
 H         -6.5247438201        1.9120219137       -1.1659518380
 C         -5.4416702477        0.0627232022       -1.0398476829
 H         -4.9735456662       -0.5558362858       -0.2713360654
 H         -6.2975915367       -0.4978610905       -1.4256161222
 C         -4.4563346608        0.2553435614       -2.1910353234
 H         -4.2849079049       -0.7246617090       -2.6447791390
 H         -4.9007171742        0.9008124440       -2.9512565067
 C         -3.0841670700        0.8303491609       -1.7988209769
 H         -2.3735416095        0.5727791888       -2.5896023605
 H         -3.1170039770        1.9151043825       -1.7317856072
 H         -4.3582384330        2.7776156624       -0.5871552256
 H         -5.4415937053        3.0473133614        0.7591453778
 H         -4.5479269380        1.1062479007        1.9624522863
 H         -3.3721246308        2.3723212192        1.6734488329
 O         -2.4582521100       -0.0513744591        1.8138714877
 C         -1.5252228887       -1.0657440021        1.7317783889
 O         -1.1866706577       -1.5387399013        2.8338266175
 H          1.0158195689       -0.8887899165       -1.2994553001
 C          1.7272705206       -1.1693278937       -0.5366269282
 C          1.3435181252       -2.0687990248        0.4490721830
 C          2.2696761009       -2.4205695935        1.4229516594
 C          3.5468960503       -1.8852209434        1.4085256287
 C          3.9230993201       -0.9838939905        0.4281979286
 C          3.0017839590       -0.6260120390       -0.5467365891
 N          3.3569743374        0.3372277076       -1.5225791055
 S          3.5313224892        1.8798683116       -0.8871125353
 O          3.4346992937        2.7872319829       -2.0071940978
 O          4.7553134005        1.9307346287       -0.1294043221
 C          2.1316408929        2.0713179175        0.2035255435
 C          2.2645395303        1.7289863803        1.5342159266
 C          1.1518147312        1.7939068712        2.3563935142
 C         -0.0668406416        2.2018527766        1.8377536796
 C         -0.1838915172        2.5455001519        0.4999285246
 C          0.9231008752        2.4711300019       -0.3295885139
 H          0.8693262392        2.7286320581       -1.3754589691
 H         -1.1340163718        2.8602908395        0.0991086743
 H         -0.9301105978        2.2427811418        2.4837226487
 H          1.2324796752        1.5182601301        3.3955790368
 H          3.2304719679        1.4240791386        1.9019744397
 H          2.6890874027        0.3732901370       -2.2814904966
 H          4.9035851422       -0.5360196006        0.4141686479
 H          4.2549934725       -2.1675459864        2.1726078862
 H          1.9777314421       -3.1052881646        2.2056739894
 C         -0.0640379314       -2.6036223440        0.4727366292
 H         -0.2101033453       -3.1092437592        1.4398265414
 C         -0.3399931212       -3.6283677344       -0.6208728621
 C          0.5863551540       -3.8983220710       -1.7651119992
 C          0.4514512327       -4.9021895919       -0.6625493494
 H         -0.0654165295       -5.8289132436       -0.8606556295
 H          1.2755010780       -4.9946642752        0.0290186478
 H          0.1428178461       -4.1153693499       -2.7250620887
 H          1.5039383454       -3.3351328401       -1.8301714908
 H         -1.4001677459       -3.7114486457       -0.8376431535
 O         -1.0972251047       -1.0838950849       -1.8611919576
