  62
        -98.94453079
 C         -1.2713621681       -1.7718855694       -0.6904789430
 C         -2.4637407342       -1.6507415640        0.0699255882
 C         -3.3944317790       -0.5945570525       -0.3357305703
 C         -3.1113991588        0.1620145865       -1.4109706737
 C         -3.9358816184        1.3065797654       -1.9322370365
 C         -3.6369465965        2.6328775129       -1.2189759272
 C         -4.1966953263        2.7439882327        0.1999968780
 H         -4.1233648235        3.7940196629        0.4904145646
 H         -5.2546876230        2.4777858019        0.1968577592
 C         -3.4508314537        1.8955892710        1.2399209358
 H         -2.4691692260        1.6186326831        0.8454230451
 H         -3.2683101225        2.4966878719        2.1343446199
 C         -4.1954863155        0.6363066548        1.6868285885
 H         -3.5534709984        0.0917099704        2.3842689516
 H         -5.1065966741        0.9216385021        2.2181380511
 C         -4.5730851053       -0.3199070703        0.5476579895
 H         -5.3988754509        0.0910656441       -0.0324628050
 H         -4.8891475149       -1.2688967454        0.9879929475
 H         -2.5533733497        2.7779573204       -1.1896183615
 H         -4.0666899145        3.4360908623       -1.8226061024
 H         -4.9972495434        1.0723298463       -1.8461162446
 H         -3.6861917810        1.4186395593       -2.9895385727
 O         -2.0055248791       -0.0410360729       -2.1682016293
 C         -1.0206261645       -0.9502713668       -1.7899781997
 O         -0.0197166583       -0.9225823913       -2.5297599484
 O         -2.7260751355       -2.3901081296        1.0570442832
 C         -0.2327758208       -2.7279542015       -0.1291021403
 C          0.4593304233       -2.0624674964        1.0382416169
 C          0.8078906902       -2.7677820444        2.1836912313
 C          1.4131260118       -2.1189077658        3.2463299415
 C          1.6658358185       -0.7598390534        3.1967901056
 C          1.3050877105       -0.0411473864        2.0608437089
 C          0.7292706317       -0.7032222767        0.9878907005
 H          0.4427132547       -0.1385705707        0.1166451559
 N          1.4806714508        1.3426620024        2.0031599491
 S          1.4651023588        2.2446525270        0.6028145951
 O          1.8063018601        3.5761205936        1.0578349338
 O          0.2020184376        2.1148914688       -0.0783341600
 C          2.8180181393        1.6102118844       -0.3700073595
 C          2.6047944235        0.8607664803       -1.5077260296
 C          3.7049087568        0.3861593443       -2.2078030035
 C          4.9870448035        0.6604382687       -1.7614487464
 C          5.1843311585        1.4171800577       -0.6153902097
 C          4.0919728223        1.8969640948        0.0860943817
 H          4.2011114338        2.5053986335        0.9690695422
 H          6.1824508525        1.6332786103       -0.2699766787
 H          5.8357819753        0.2844393082       -2.3105894161
 H          3.5408553918       -0.2002945094       -3.0975105717
 H          1.6019299141        0.6408679409       -1.8406078622
 H          2.0014792922        1.7666466375        2.7538074714
 H          2.1161411605       -0.2523509871        4.0357332787
 H          1.6796444224       -2.6759064687        4.1316989474
 H          0.5782624013       -3.8208570577        2.2510853338
 H         -0.8037386379       -3.5800215870        0.2748695716
 C          0.7434580774       -3.2740854551       -1.1578424100
 C          2.1508547398       -2.7811337741       -1.2820272023
 C          1.8860276357       -4.1501304340       -0.7360502416
 H          2.1275841773       -5.0059544785       -1.3477962650
 H          2.0395867702       -4.3032382153        0.3207612288
 H          2.5595974662       -2.6836143418       -2.2752874945
 H          2.4796490506       -2.0104994180       -0.6012685507
 H          0.2449005688       -3.5380195028       -2.0842465206
