  62
        -98.93790466
 C          2.6033733221        0.1800068966       -0.0343941528
 C          2.4034498944        1.2755530491       -0.9026657783
 C          1.7701380124        2.4732304918       -0.3258438194
 C          1.3938766850        2.4602677044        0.9668043679
 C          0.7154485845        3.5110721983        1.8208837394
 C          0.1201243534        4.7667424166        1.1900348436
 C         -1.1264593237        4.5215611190        0.3397242637
 H         -1.9473872168        4.2445661418        1.0060980137
 H         -1.3950555901        5.4595887744       -0.1516288370
 C         -1.0069739283        3.4237802661       -0.7150368817
 H         -0.8334662029        2.4603911975       -0.2284710557
 H         -1.9701020514        3.3547194843       -1.2301654532
 C          0.0634265758        3.6561499240       -1.7796673768
 H         -0.1032437308        4.6212665415       -2.2629700804
 H         -0.0518060642        2.8771857988       -2.5387816423
 C          1.5170024165        3.6039146429       -1.2823657705
 H          2.1618155912        3.4212862255       -2.1473603310
 H          1.8186808567        4.5519114901       -0.8440734000
 H         -0.1700275395        5.4217935630        2.0161300681
 H          0.8777239593        5.2964967783        0.6199506967
 H         -0.0698621790        2.9767738101        2.3662842876
 H          1.4589967208        3.8131290650        2.5668987194
 O          1.6397477792        1.3894226644        1.7770179478
 C          2.1972660063        0.2188597708        1.2991248910
 O          2.2947789870       -0.6895014646        2.1472811928
 H          0.5920448065       -0.7552832792       -1.3034843209
 C          0.7208903172       -1.7337189374       -0.8559399986
 C          1.9907699200       -2.1392333034       -0.4635904745
 C          2.1304511699       -3.3996438972        0.1006742351
 C          1.0208963586       -4.2027289687        0.3106598912
 C         -0.2485892001       -3.7640143498       -0.0207128789
 C         -0.3904296726       -2.5201540818       -0.6168456827
 N         -1.6975097317       -2.0116547674       -0.8862702127
 S         -2.1928604863       -1.0922781668        0.4551438534
 O         -1.4304158559        0.1357322151        0.5329436223
 O         -2.1603589124       -1.9512493756        1.6112468981
 C         -3.8843723641       -0.7304959730        0.0207895142
 C         -4.8104772487       -1.7531904348        0.0947269259
 C         -6.1224224929       -1.4953005183       -0.2683067197
 C         -6.4837436670       -0.2267599347       -0.6981432995
 C         -5.5426892873        0.7890550976       -0.7674049109
 C         -4.2278393207        0.5367822710       -0.4072813434
 H         -3.4621309416        1.2958176372       -0.4395402525
 H         -5.8257868974        1.7747710934       -1.1000187266
 H         -7.5058077256       -0.0277828156       -0.9792605716
 H         -6.8575095094       -2.2820109550       -0.2148240300
 H         -4.4828344917       -2.7187104225        0.4421298317
 H         -1.6726341564       -1.3729447031       -1.6733148612
 H         -1.1244169773       -4.3549755036        0.1902999880
 H          1.1461148458       -5.1732544397        0.7662881252
 H          3.1061015758       -3.7436786967        0.4037139012
 C          3.1094637951       -1.1350764467       -0.6048795733
 H          3.2851281840       -0.9469348098       -1.6744128305
 C          4.4066914623       -1.5669495471        0.0405172907
 C          5.3575390538       -2.4545478325       -0.7046316533
 C          5.6972202628       -1.0125396253       -0.4814149450
 H          6.4747247276       -0.7667220578        0.2259472375
 H          5.6418356929       -0.3362191099       -1.3218488402
 H          5.9066647978       -3.2007626128       -0.1508003865
 H          5.0780237097       -2.7602774902       -1.7014114563
 H          4.3131522978       -1.6965308485        1.1127605306
 O          2.7270202243        1.2508869514       -2.1228893474
