  62
        -98.92978503
 C         -3.0390533513       -0.3710305450       -0.1009372845
 C         -2.2735414519       -0.8060146709       -1.2180731804
 C         -1.6443376804       -2.1298929487       -1.1221912124
 C         -1.9407931245       -2.9221437700       -0.0753541146
 C         -1.4576889106       -4.3179313941        0.2499651062
 C         -0.0665365050       -4.7645567609       -0.2018952297
 C          1.0925020072       -3.9036524438        0.2959926904
 H          1.1325473383       -3.9566897692        1.3865069513
 H          2.0168420783       -4.3352147334       -0.0936064675
 C          1.0400907206       -2.4273899539       -0.0996208335
 H          1.9884947235       -1.9684552201        0.1961538734
 H          0.2518511288       -1.9226822583        0.4645513453
 C          0.8339468413       -2.1530645300       -1.5912566088
 H          1.5565277695       -2.7300171228       -2.1714533877
 H          1.0425441318       -1.0920811470       -1.7626852501
 C         -0.5831818520       -2.4435620622       -2.1339622026
 H         -0.7606491382       -1.7863455447       -2.9896474655
 H         -0.6767615503       -3.4705032274       -2.4811623289
 H          0.0767488184       -5.7732929746        0.1944888387
 H         -0.0262467261       -4.8408092932       -1.2846343827
 H         -1.5271552177       -4.4038762314        1.3380918291
 H         -2.1935066979       -5.0130608604       -0.1684898478
 O         -2.8423150402       -2.5399720427        0.8694300568
 C         -3.3585707709       -1.2452505841        0.9350755235
 O         -4.0730152274       -1.0622278219        1.9371153987
 O         -2.1021355418       -0.0943625974       -2.2429574455
 C         -3.4154686400        1.1038249164       -0.1255229194
 C         -2.1521407503        1.9131250845       -0.3190582897
 C         -2.1458107419        3.0638807960       -1.0972332227
 C         -0.9759604216        3.7776266411       -1.2894459776
 C          0.2134105928        3.3493350402       -0.7284621596
 C          0.2213757225        2.1923716799        0.0392466600
 C         -0.9606901963        1.5014677838        0.2605643059
 H         -0.9458306685        0.5984826141        0.8594567541
 N          1.4319451203        1.7229566622        0.5896560954
 S          2.7456017464        1.6843475726       -0.4791089963
 O          3.3354792302        3.0008608770       -0.5016358256
 O          2.3437239989        1.1539861608       -1.7608353585
 C          3.8461883960        0.5559026913        0.3501489486
 C          4.3085635183        0.8950001350        1.6081221155
 C          5.1577651920        0.0199967016        2.2662671766
 C          5.5300570214       -1.1706409594        1.6589392070
 C          5.0626266590       -1.4935527405        0.3944379288
 C          4.2109872661       -0.6235284716       -0.2696788803
 H          3.8242172992       -0.8300946890       -1.2548763444
 H          5.3556367536       -2.4175803128       -0.0771575684
 H          6.1910064893       -1.8498629561        2.1736276101
 H          5.5268304456        0.2687811485        3.2481319738
 H          4.0001789406        1.8332683980        2.0387627505
 H          1.3126152718        0.8157062553        1.0217127932
 H          1.1389253655        3.8750615505       -0.9000427610
 H         -0.9843522013        4.6679234686       -1.9002378641
 H         -3.0583844106        3.3821682779       -1.5798788211
 H         -4.0384790573        1.2636732352       -1.0219277424
 C         -4.2139372280        1.5820686410        1.0754440624
 C         -3.5573066679        2.1288176813        2.3041487351
 C         -4.3334529557        3.0402885928        1.4033713432
 H         -5.2904297433        3.4065953844        1.7423848115
 H         -3.7740011021        3.7451657530        0.8077156135
 H         -3.9733494118        1.8542305297        3.2611971199
 H         -2.4812305480        2.2186798120        2.3049153263
 H         -5.0977472566        0.9777467341        1.2385086761
