  62
        -98.94457211
 C         -2.0738281030       -1.1276839367       -0.6199717091
 C         -1.5354606719       -0.0002574973       -1.2862421592
 C         -2.2050540900        1.2843305036       -1.0262387085
 C         -3.2467129095        1.3320168948       -0.1786488379
 C         -3.9998963876        2.5756784358        0.1940986328
 C         -3.4142163259        3.2417048048        1.4460228125
 C         -1.8991874357        3.4414975827        1.3956838117
 H         -1.3995652970        2.4697798620        1.4242430012
 H         -1.6112441945        3.9690461122        2.3084013116
 C         -1.3991659854        4.2255039223        0.1743955216
 H         -0.6559702742        4.9522647012        0.5095259413
 H         -2.2222358149        4.7838731335       -0.2743978078
 C         -0.7246854171        3.3569044916       -0.8889258190
 H          0.0011191023        2.7022725305       -0.3998404195
 H         -0.1754916266        4.0125041710       -1.5704363392
 C         -1.6679585788        2.4943856130       -1.7380043786
 H         -1.0963801798        2.1129411524       -2.5892427290
 H         -2.4848401282        3.1099964842       -2.1213212480
 H         -3.6469895563        2.6180299749        2.3124196726
 H         -3.9046772346        4.2080300954        1.5815356530
 H         -5.0367653378        2.2988650471        0.3944879333
 H         -3.9756780071        3.2706823659       -0.6433183771
 O         -3.7252667906        0.2338475654        0.4617521121
 C         -3.1436901624       -1.0071152154        0.2704118516
 O         -3.6740628132       -1.9260001148        0.9291196317
 O         -0.5552045824       -0.0408516784       -2.0737830097
 C         -1.5032341150       -2.5325762774       -0.7524957197
 C         -0.4572240947       -2.7525508790        0.3109610197
 C         -0.4903671357       -3.8650020991        1.1420906395
 C          0.4487542147       -4.0136706106        2.1481666889
 C          1.4155706261       -3.0476083019        2.3581087586
 C          1.4586628271       -1.9301099218        1.5292941887
 C          0.5434749967       -1.8088199004        0.4961844893
 H          0.5812844975       -0.9471246703       -0.1462749706
 N          2.4256498586       -0.9355276232        1.7201057884
 S          2.1269991706        0.6972927773        1.4499238689
 O          2.8020927222        1.3703915162        2.5422233586
 O          0.7182054009        0.9689898992        1.3122236297
 C          3.0304373302        1.0307810763       -0.0497940716
 C          2.4225230494        0.9701302674       -1.2868987713
 C          3.1867893391        1.2164624366       -2.4183314516
 C          4.5344607896        1.5143249647       -2.2988992224
 C          5.1311400904        1.5709956237       -1.0480380527
 C          4.3747035607        1.3266430045        0.0853380277
 H          4.7932269713        1.3740699837        1.0770839575
 H          6.1794655407        1.8044042323       -0.9537584333
 H          5.1210683593        1.7040497641       -3.1840446327
 H          2.7146463385        1.1690642674       -3.3865809014
 H          1.3726320090        0.7362657788       -1.3768869507
 H          3.0003857589       -1.0623995341        2.5398860480
 H          2.1293147164       -3.1502230231        3.1616624381
 H          0.4149129039       -4.8811929607        2.7899137988
 H         -1.2695171268       -4.6018192281        1.0118262998
 H         -2.3442194058       -3.2096600663       -0.5309724893
 C         -1.0152768763       -2.8606146178       -2.1561471000
 C          0.4298593533       -2.9988888197       -2.5183101809
 C         -0.4398804783       -4.2156820085       -2.4460163506
 H         -0.7201121794       -4.7109677780       -3.3632919005
 H         -0.2964057087       -4.8822111889       -1.6088000208
 H          0.7374206333       -2.6335794899       -3.4859271310
 H          1.1666650840       -2.8511782808       -1.7443791413
 H         -1.6618024461       -2.4342484268       -2.9161303496
