  62
        -98.94343840
 C         -1.8837447707       -0.8463213641        0.6474705717
 C         -2.2707834606       -0.4246712820       -0.6479105231
 C         -3.7147260673       -0.4447670128       -0.9144369292
 C         -4.5645985519       -0.8904056259        0.0286683851
 C         -6.0601674013       -0.9905730670       -0.1033230880
 C         -6.8007381733        0.3175811940        0.2067456342
 C         -6.6628284281        1.4099110168       -0.8546032408
 H         -6.9244362736        1.0009704690       -1.8309790822
 H         -7.3979047944        2.1815725620       -0.6170849251
 C         -5.2721547554        2.0568790446       -0.9210908023
 H         -5.3777996573        3.1429378589       -0.9722117777
 H         -4.7218471446        1.8331597605       -0.0041411626
 C         -4.4283563250        1.6269716821       -2.1213577194
 H         -3.4527388222        2.1141418724       -2.0456482358
 H         -4.9047102200        1.9666314706       -3.0437039295
 C         -4.1945031126        0.1136463785       -2.2198962669
 H         -5.1069492572       -0.3889321179       -2.5397530569
 H         -3.4146078931       -0.0647672360       -2.9639221147
 H         -6.4496549656        0.6978499069        1.1689856365
 H         -7.8607048636        0.0752501399        0.3127229430
 H         -6.3854650052       -1.7480962486        0.6129757241
 H         -6.3186152799       -1.3276495440       -1.1073907719
 O         -4.1455325517       -1.3311547211        1.2455211037
 C         -2.8047736112       -1.2919260554        1.5942835366
 O         -2.5636540425       -1.6763353669        2.7574727064
 O         -1.4584641915       -0.0491676119       -1.5315961193
 C         -0.4190557248       -0.8226625357        1.0392923145
 C          0.1674231061        0.5575698870        0.8620419160
 C         -0.6020400479        1.6788046999        1.1605524042
 C         -0.0880543165        2.9514812252        1.0083373410
 C          1.2156853158        3.1349427336        0.5828072269
 C          2.0014131545        2.0241239381        0.3053911606
 C          1.4743787350        0.7464743241        0.4383215611
 H          2.1005717350       -0.1013400554        0.2147958426
 N          3.3282682031        2.1724317113       -0.1264389841
 S          4.5157965576        1.1753855742        0.5037308674
 O          4.2190499958        0.7867634659        1.8626996714
 O          5.7496327730        1.9079128071        0.3091850746
 C          4.5328815839       -0.2546695700       -0.5562631773
 C          4.3207707516       -0.0937793458       -1.9112048248
 C          4.3851052032       -1.2066783413       -2.7343770088
 C          4.6689845055       -2.4523907885       -2.1951236955
 C          4.8858739789       -2.5960635050       -0.8335108903
 C          4.8173000992       -1.4875920085       -0.0036219647
 H          4.9655114143       -1.5569869817        1.0622036434
 H          5.1058192655       -3.5652747503       -0.4145237779
 H          4.7195031230       -3.3164062471       -2.8388956821
 H          4.2134897289       -1.0994643259       -3.7933862096
 H          4.1001225836        0.8872160175       -2.2974450237
 H          3.6470049775        3.1280376586       -0.1960632960
 H          1.6206977414        4.1289490342        0.4675077748
 H         -0.7045462084        3.8096137690        1.2310161055
 H         -1.6175714666        1.5398814451        1.5063400041
 H         -0.3833699663       -1.0688733129        2.1115409765
 C          0.3324708352       -1.8913888293        0.2703128889
 C          1.4933014814       -2.6066525532        0.8912235181
 C          0.1895619727       -3.3197909863        0.6992303361
 H          0.1253946849       -4.0834891599       -0.0609456772
 H         -0.4228809215       -3.5148701239        1.5678442007
 H          2.3238728680       -2.8815103118        0.2585763898
 H          1.7778004704       -2.3250022377        1.8943133949
 H          0.3660603922       -1.6875722738       -0.7939028523
