  62
        -98.94491800
 C         -1.9704625355       -0.8519760356        0.0684973645
 C         -2.2632514298        0.1136025656        1.0587970029
 C         -2.3344590914        1.5058567826        0.5991660135
 C         -2.0898657086        1.7828873980       -0.6948920885
 C         -2.1509046639        3.1539202422       -1.3032617502
 C         -3.5514543557        3.4630236342       -1.8505045799
 C         -4.6783797903        3.1681963095       -0.8606902828
 H         -5.6167436422        3.4510343032       -1.3422942384
 H         -4.7193564344        2.0916724085       -0.6804028723
 C         -4.5507461171        3.9011944939        0.4818987185
 H         -5.5250508789        4.3153089351        0.7493611165
 H         -3.8580626387        4.7375683831        0.3829547983
 C         -4.1088631432        3.0148455535        1.6478269180
 H         -4.2608376579        3.5719414967        2.5760453622
 H         -4.7417519328        2.1250975212        1.6920979965
 C         -2.6435050998        2.5608888234        1.6242178727
 H         -1.9890150696        3.4256657644        1.4933504879
 H         -2.4174401483        2.1077754706        2.5942599189
 H         -3.7132996756        2.8578126488       -2.7453260904
 H         -3.5836213783        4.5148985276       -2.1399511343
 H         -1.8705496140        3.8889837534       -0.5509522523
 H         -1.4289198292        3.1940031470       -2.1208756182
 O         -1.8035337680        0.8296548447       -1.6175940300
 C         -1.7208394250       -0.5061080625       -1.2598499894
 O         -1.4395411536       -1.2750215559       -2.1996259099
 H          0.4343646193       -0.9414523024        0.8894347793
 C          0.6380063938       -1.9001641666        0.4333821585
 C         -0.4123220334       -2.7649332272        0.1521061695
 C         -0.1208842213       -3.9982990452       -0.4157690023
 C          1.1861811923       -4.3335739135       -0.7257230530
 C          2.2215250143       -3.4482481701       -0.4912894532
 C          1.9419775859       -2.2194237834        0.0971731116
 N          2.9679847797       -1.2974115965        0.3738891022
 S          2.6077867879        0.3481549569        0.2379283803
 O          1.9924816912        0.7904369818        1.4653922870
 O          1.8761503302        0.6105633876       -0.9810590789
 C          4.2572387602        1.0187051093        0.1284469337
 C          4.7781082111        1.3465916693       -1.1088396194
 C          6.0735256700        1.8346990406       -1.1829483988
 C          6.8227108802        1.9821819624       -0.0253489660
 C          6.2859638452        1.6494485039        1.2097076762
 C          4.9911595751        1.1623181099        1.2909796307
 H          4.5268891340        0.8989300692        2.2269356645
 H          6.8702520470        1.7680054721        2.1078148684
 H          7.8304501763        2.3614997049       -0.0861488123
 H          6.4916589408        2.0972890019       -2.1412918546
 H          4.1542902890        1.2213599827       -1.9795882784
 H          3.8321855689       -1.5240571702       -0.1001941240
 H          3.2358813325       -3.7014246181       -0.7596481436
 H          1.3985157943       -5.2919399212       -1.1748596183
 H         -0.9182461043       -4.6910417807       -0.6297536150
 C         -1.8129342691       -2.3051214927        0.4774455871
 H         -1.9363996165       -2.3176489528        1.5713378383
 C         -2.8926536953       -3.1637243694       -0.1471473431
 C         -3.3843016504       -4.3928660609        0.5558937793
 C         -4.2557969637       -3.1769234497        0.4750709989
 H         -5.1183220573       -3.1992947855       -0.1738559365
 H         -4.3961653362       -2.5853236566        1.3681107720
 H         -2.9401772052       -4.6335324859        1.5098968527
 H         -3.6530003104       -5.2535052855       -0.0378069892
 H         -2.8352000003       -3.1765239327       -1.2298957367
 O         -2.4514015888       -0.1768804644        2.2729446481
