  62
        -98.94613039
 C         -1.9299284404       -1.2934257441        0.2761274576
 C         -1.7190892600        0.0899800517        0.0674918432
 C         -2.8715259959        0.9571273861        0.3420948587
 C         -4.0254717551        0.4190654337        0.7772354989
 C         -5.2810185818        1.1745046289        1.1192169645
 C         -6.1677449392        1.4924475830       -0.0925904418
 C         -5.6337500081        2.5834674596       -1.0216473434
 H         -6.4480044420        2.8560965703       -1.6960077526
 H         -5.3863907744        3.4692240460       -0.4357572806
 C         -4.4191027060        2.1627416167       -1.8609043097
 H         -4.3397923115        1.0730749406       -1.8668134410
 H         -4.5657225017        2.4772550563       -2.8967537804
 C         -3.0890832494        2.7530555815       -1.3924138158
 H         -2.2956666606        2.3610623955       -2.0340817640
 H         -3.1095797030        3.8390007299       -1.5083202659
 C         -2.7298677213        2.4227984549        0.0621059066
 H         -3.3508037819        3.0031047098        0.7441477012
 H         -1.6831027530        2.6902299152        0.2248283549
 H         -6.3241614544        0.5733093625       -0.6620407630
 H         -7.1388218332        1.8148146975        0.2902109161
 H         -5.8485386928        0.5400643953        1.8034018694
 H         -5.0236162117        2.0995608301        1.6357437255
 O         -4.1804518519       -0.9163466691        0.9828627075
 C         -3.1477214723       -1.8035249193        0.7254983810
 O         -3.4290925131       -2.9994579672        0.9435037711
 O         -0.6272115355        0.5788979099       -0.3210761770
 C         -0.8071449168       -2.2763659312       -0.0018330025
 C          0.4182714028       -1.8981691889        0.7935306505
 C          0.2934666805       -1.7135934792        2.1689822463
 C          1.3865270799       -1.3676317775        2.9385954034
 C          2.6279646689       -1.1892255711        2.3519784334
 C          2.7651782446       -1.3774124513        0.9829532753
 C          1.6670078236       -1.7420966690        0.2140050469
 H          1.8060913489       -1.8762445528       -0.8451029270
 N          4.0182883694       -1.2289434274        0.3586181492
 S          4.1954929915       -0.1570684824       -0.9161103630
 O          3.3210193752       -0.5279826380       -1.9971893635
 O          5.6128161899       -0.1706803884       -1.2078180982
 C          3.7495527926        1.4327685046       -0.2398400673
 C          2.4185007639        1.7533615404       -0.0630469209
 C          2.1029283323        2.9701802802        0.5226490310
 C          3.1084706792        3.8376646950        0.9186041196
 C          4.4404419756        3.4982977491        0.7334856195
 C          4.7655164094        2.2832684476        0.1538153803
 H          5.7861262191        1.9785577001       -0.0132969682
 H          5.2228112487        4.1739131573        1.0398964684
 H          2.8519855435        4.7821037396        1.3724295890
 H          1.0641155808        3.2231610836        0.6641670415
 H          1.6414840484        1.0726772758       -0.3734099296
 H          4.7811472992       -1.0963375168        1.0081806959
 H          3.4828150262       -0.9115248128        2.9499489237
 H          1.2718490054       -1.2278384010        4.0029124062
 H         -0.6792118405       -1.8438227785        2.6245990293
 H         -1.1606285548       -3.2540947240        0.3574042952
 C         -0.5560925975       -2.3701167438       -1.4925303322
 C         -0.0012799438       -3.6294371288       -2.0846984562
 C         -1.4328561152       -3.2558397354       -2.3232828372
 H         -1.7224343962       -2.9193169127       -3.3076195966
 H         -2.2014313322       -3.8146314343       -1.8087420562
 H          0.6966842462       -3.5470057445       -2.9045112137
 H          0.2031841490       -4.4496828170       -1.4131168123
 H         -0.2462956355       -1.4264088158       -1.9283519726
