  62
        -98.93822812
 C         -1.5237681495       -1.5223624225        0.6032942575
 C         -2.3152328617       -1.1099570892       -0.4941446724
 C         -3.1861797287        0.0623683334       -0.2726926812
 C         -3.1213111191        0.7276712412        0.8950825352
 C         -3.8942278431        1.9217033934        1.4160765717
 C         -4.7964367780        2.7335264009        0.4907611081
 C         -4.0527878468        3.5606898369       -0.5580098280
 H         -4.7879949198        3.9926215095       -1.2402692214
 H         -3.5476759430        4.3862120764       -0.0501585106
 C         -3.0023692527        2.8044507512       -1.3673382184
 H         -2.5202285860        3.5194131124       -2.0395393508
 H         -2.2350019556        2.4138815264       -0.6971014552
 C         -3.5358658690        1.6546051400       -2.2176985453
 H         -2.7161727216        1.2993136710       -2.8479874961
 H         -4.3297086630        2.0159453799       -2.8745077702
 C         -4.0664763769        0.4474016216       -1.4279309057
 H         -4.0802040087       -0.4140894077       -2.1019012273
 H         -5.0871099125        0.6144390060       -1.0921041694
 H         -5.3510432108        3.4288413833        1.1267295270
 H         -5.5310497678        2.0862954328        0.0206961886
 H         -4.5028319432        1.5372770142        2.2420466321
 H         -3.1511383429        2.5862482099        1.8682115954
 O         -2.2734385094        0.3402084670        1.8942903427
 C         -1.4744938789       -0.7789500793        1.7833291718
 O         -0.7672866690       -1.0051055917        2.7872969999
 O         -2.3246626980       -1.6886657890       -1.6107688931
 C         -0.6148429962       -2.7416586950        0.5379342753
 C          0.6338904551       -2.3459169252       -0.2118846962
 C          0.8000070110       -2.5465131758       -1.5761056884
 C          1.9480820376       -2.1035610480       -2.2110676925
 C          2.9495686805       -1.4601691269       -1.5057293407
 C          2.7866841989       -1.2460639525       -0.1423548730
 C          1.6360494549       -1.6889085196        0.4922400191
 H          1.5002386673       -1.5107659170        1.5512781513
 N          3.7996709629       -0.6002926207        0.5963556698
 S          4.2841112849        0.9303407533        0.1301782714
 O          4.8793136057        0.8571493736       -1.1795050852
 O          5.1360335540        1.4019854054        1.1970740353
 C          2.7934832653        1.9069838590        0.0681816716
 C          2.4389470541        2.6456150347        1.1792703624
 C          1.2689490302        3.3865751478        1.1473522991
 C          0.4722444216        3.3668025666        0.0132189832
 C          0.8348550087        2.6089885646       -1.0896712414
 C          2.0072855290        1.8709874427       -1.0662409388
 H          2.3251666049        1.2794869900       -1.9091577067
 H          0.2077517486        2.5889765875       -1.9667607123
 H         -0.4359653307        3.9482926133       -0.0135756818
 H          0.9822090890        3.9745023408        2.0045569837
 H          3.0915192712        2.6395582157        2.0376418576
 H          3.6232649312       -0.6049609513        1.5912872607
 H          3.8464425524       -1.1090032185       -1.9900161726
 H          2.0670695240       -2.2651558208       -3.2718601847
 H          0.0204302718       -3.0300842313       -2.1413249444
 H         -0.3240455911       -2.9493802716        1.5768185955
 C         -1.3027291767       -3.9676895610       -0.0217944110
 C         -0.6593161577       -5.3075223500        0.1665520135
 C         -1.9060087376       -4.9616443166        0.9226220594
 H         -2.8308754116       -5.4427243257        0.6416826251
 H         -1.8227102714       -4.7636286648        1.9816178911
 H         -0.7258406035       -6.0291536284       -0.6330269242
 H          0.2718196374       -5.3413372069        0.7122839124
 H         -1.8314099772       -3.7853693228       -0.9476497907
