  62
        -98.94520848
 C         -2.4584723068       -1.2247557309       -0.0818203367
 C         -3.4698982468       -0.7176831249        0.7745240245
 C         -4.2561976128        0.4040205891        0.2525404937
 C         -3.9989275742        0.8818392068       -0.9784195576
 C         -4.7188078431        2.0154792602       -1.6567290185
 C         -4.1886830961        3.4041932663       -1.2739166504
 C         -4.5493094599        3.8718485299        0.1367656452
 H         -4.3083009251        4.9352871324        0.1919204771
 H         -5.6248336668        3.7730469309        0.2869630978
 C         -3.8007490310        3.1384358332        1.2586206283
 H         -3.4284011712        3.8661570013        1.9832217934
 H         -2.9274766406        2.6294391077        0.8426458303
 C         -4.6471387594        2.1248605889        2.0292261582
 H         -5.4458637987        2.6452331901        2.5622058659
 H         -4.0072300085        1.6392249814        2.7701374215
 C         -5.2750433202        1.0307861701        1.1558500462
 H         -5.6634117919        0.2486567312        1.8125214266
 H         -6.0992227083        1.4408821239        0.5729748998
 H         -4.6033415999        4.1195071180       -1.9880218360
 H         -3.1022850662        3.4082281663       -1.3932629886
 H         -5.7851018648        1.9577726255       -1.4366758221
 H         -4.5761962182        1.8766539853       -2.7305761974
 O         -3.0331373866        0.3573420165       -1.7775258361
 C         -2.2221949497       -0.6829943126       -1.3453515922
 O         -1.3628845025       -1.0264315035       -2.1816475775
 O         -3.7049046204       -1.1848258462        1.9199594340
 C         -1.5817191375       -2.3464188321        0.4535581795
 C         -0.2340101609       -1.7503018504        0.7770153592
 C         -0.0231253341       -1.1655705554        2.0225631955
 C          1.1708120400       -0.5315398993        2.3116667108
 C          2.1735992410       -0.4539143536        1.3606520361
 C          1.9657288854       -1.0194707250        0.1103912986
 C          0.7782793535       -1.6817519345       -0.1681876186
 H          0.6238856710       -2.1016294233       -1.1497757629
 N          2.9691373466       -0.9133388017       -0.8728560831
 S          3.5065591978        0.6421276097       -1.2236897867
 O          2.4958111054        1.6352161616       -0.9390061375
 O          3.9896797632        0.5831233597       -2.5863849703
 C          4.8986178786        0.8577768056       -0.1325417115
 C          5.9260273443       -0.0630822895       -0.1996244228
 C          7.0195639373        0.0924637114        0.6370673338
 C          7.0687943526        1.1616231453        1.5194111605
 C          6.0310880593        2.0795341292        1.5721326431
 C          4.9337618798        1.9291905289        0.7382236446
 H          4.1006310090        2.6140268410        0.7473210691
 H          6.0709939275        2.9106449405        2.2578111923
 H          7.9210302312        1.2805683030        2.1696723225
 H          7.8284342480       -0.6191916244        0.5989504116
 H          5.8492716505       -0.8760164107       -0.9020380869
 H          2.7244271653       -1.3874336462       -1.7314785354
 H          3.1016444600        0.0517350638        1.5722178036
 H          1.3211402592       -0.0866760513        3.2835680777
 H         -0.8175000547       -1.1982840736        2.7549586248
 H         -2.0529518273       -2.6560142831        1.3958748190
 C         -1.5176618876       -3.5415361597       -0.4731809597
 C         -0.9734789503       -4.8371051082        0.0479527534
 C         -2.4379159791       -4.7001773447       -0.2377134842
 H         -2.8477767593       -5.2128037604       -1.0950491854
 H         -3.1185396910       -4.6362195128        0.5984810543
 H         -0.3753403778       -5.4477683557       -0.6108245405
 H         -0.6588735978       -4.8635838318        1.0801814197
 H         -1.3089677757       -3.2813258995       -1.5033139241
