  62
        -98.94031240
 C          1.4889082795        1.2410872300        0.2956321698
 C          1.5658311499       -0.1755684700        0.3434260398
 C          2.7622243902       -0.7871755096       -0.2470403900
 C          3.7029061801        0.0081465407       -0.7876207899
 C          4.9994823203       -0.4727179889       -1.3709594297
 C          6.1058476302       -0.5187328385       -0.3077240595
 C          5.6965791702       -1.2321576387        0.9809179105
 H          6.5642736601       -1.2280495084        1.6443189706
 H          4.9124856499       -0.6535469889        1.4746562403
 C          5.2113141307       -2.6748665488        0.7817158404
 H          5.6786364208       -3.3089038087        1.5381855104
 H          5.5342100209       -3.0426592787       -0.1928757196
 C          3.6985890407       -2.8581901693        0.9173197901
 H          3.4907504710       -3.9299450794        0.9740210001
 H          3.3580929304       -2.4081890194        1.8531933301
 C          2.8535877607       -2.2868874696       -0.2279603800
 H          3.2289488810       -2.6602443994       -1.1828755400
 H          1.8276608808       -2.6416800799       -0.0949104002
 H          6.3876910498        0.5064750416       -0.0564768794
 H          6.9780234704       -1.0140053982       -0.7385006793
 H          4.8528770907       -1.4622708389       -1.7996635597
 H          5.2977833202        0.2163622512       -2.1628225596
 O          3.5938743196        1.3591018707       -0.8231329399
 C          2.4806083793        2.0158935303       -0.3053716700
 O          2.5217762590        3.2511869503       -0.4491982000
 H         -2.2397272805        0.7401879588        1.0599163892
 C         -2.0634088405        1.1878813688        0.0939555992
 C         -0.8577436906        1.8185910292       -0.1700024206
 C         -0.6543816106        2.3856596893       -1.4252485506
 C         -1.6451442404        2.3266175590       -2.3870163807
 C         -2.8455569303        1.6888954786       -2.1239703609
 C         -3.0552137503        1.1146710185       -0.8758361710
 N         -4.2641247501        0.4738911081       -0.5803571812
 S         -4.3260325999       -0.8167631119        0.4751894488
 O         -5.5756697496       -1.4722135923        0.1500723586
 O         -4.2032911103       -0.3510381819        1.8341431788
 C         -2.9661846595       -1.8928663215        0.0583201090
 C         -2.1738707695       -2.4017456112        1.0652986792
 C         -1.1539297191       -3.2803854609        0.7394636193
 C         -0.9432423788       -3.6291017408       -0.5841304607
 C         -1.7453617988       -3.1061171710       -1.5867008308
 C         -2.7710826591       -2.2331968314       -1.2656050609
 H         -3.4151443191       -1.8203920216       -2.0251626010
 H         -1.5730085485       -3.3760162510       -2.6164816608
 H         -0.1460776985       -4.3107635805       -0.8378331305
 H         -0.5225413491       -3.6767427707        1.5178515194
 H         -2.3602268297       -2.0953510113        2.0820743891
 H         -4.9026028100        0.3696038479       -1.3544531713
 H         -3.6159544601        1.6378387784       -2.8780222510
 H         -1.4794129904        2.7743208191       -3.3553020207
 H          0.2879174193        2.8712591196       -1.6329372104
 C          0.2255762792        1.8504810896        0.8772449496
 H         -0.0805360407        1.1597409595        1.6797533795
 C          0.4190861186        3.2193729696        1.5103031596
 C         -0.1907959317        4.4755255994        0.9720017595
 C         -0.7283735817        3.8657178592        2.2294994795
 H         -0.5401168220        4.3598712293        3.1706457895
 H         -1.6872244115        3.3706042289        2.1752309893
 H         -0.7931858715        4.4134706692        0.0796183094
 H          0.3927215980        5.3809014896        1.0404139197
 H          1.3977481285        3.3230003899        1.9666869698
 O          0.6699035701       -0.8918299103        0.8623888796
