  62
        -98.94182827
 C         -2.3799032677       -1.0860149883        0.1346034776
 C         -3.6325118123       -0.9229089937        0.7843405180
 C         -4.5921790427       -0.0245113624        0.1349620681
 C         -4.2520597364        0.5985983043       -1.0073021973
 C         -5.1261645315        1.5288515483       -1.8038585197
 C         -5.1165590653        2.9787478495       -1.3004825883
 C         -5.8640167649        3.2166277983        0.0122763976
 H         -5.9638704469        4.2972404170        0.1319966971
 H         -6.8701828545        2.8032516641       -0.0640496665
 C         -5.1626660588        2.6454778310        1.2526467641
 H         -4.1167236053        2.4363610741        1.0153564264
 H         -5.1655316391        3.3931737444        2.0489790971
 C         -5.8059314227        1.3791481104        1.8181189328
 H         -5.2080408648        1.0416081841        2.6684191651
 H         -6.8095535879        1.6094656066        2.1822073078
 C         -5.9037741717        0.2193503910        0.8184818793
 H         -6.1657273447       -0.6869293615        1.3699054343
 H         -6.6833740111        0.4202099072        0.0839595687
 H         -4.0789194093        3.3042808376       -1.1942135778
 H         -5.5797738287        3.5948811029       -2.0746948203
 H         -4.7417463393        1.5172366414       -2.8261498090
 H         -6.1494212420        1.1520891144       -1.8127188962
 O         -3.0390245207        0.4295670203       -1.5940886277
 C         -2.0654799823       -0.3939748036       -1.0367795981
 O         -1.0051217732       -0.4142507010       -1.6901188764
 O         -3.9350070488       -1.5057063641        1.8588106149
 C         -1.3663981060       -1.9924256147        0.8134137969
 C         -0.0595665952       -1.2616106727        0.9791966964
 C          0.0833109622       -0.3417915602        2.0137865969
 C          1.2528504384        0.3802205471        2.1587230250
 C          2.2987237106        0.2094026706        1.2683267072
 C          2.1565086583       -0.6892044521        0.2201033769
 C          0.9914626994       -1.4345053336        0.0935156115
 H          0.8861842799       -2.1222997785       -0.7309954173
 N          3.2049765074       -0.8617285558       -0.6981952775
 S          4.0133820498        0.4900888994       -1.2757922255
 O          3.1818689436        1.6709447774       -1.2757890034
 O          4.5576323985        0.0834113320       -2.5535278292
 C          5.3570979277        0.6907687083       -0.1216148236
 C          6.1695405138       -0.3978166905        0.1289982521
 C          7.2252366557       -0.2557417274        1.0151104440
 C          7.4524286256        0.9664575119        1.6301771373
 C          6.6305785847        2.0510289011        1.3654929604
 C          5.5719803919        1.9148238603        0.4806965988
 H          4.9040298684        2.7292155015        0.2481231402
 H          6.8085228789        3.0008632081        1.8437389119
 H          8.2748540684        1.0746406870        2.3195174198
 H          7.8664505400       -1.0970152805        1.2234007942
 H          5.9613018866       -1.3283626490       -0.3718240432
 H          2.9722973343       -1.4861832352       -1.4571202629
 H          3.2074133574        0.7806863832        1.3651276232
 H          1.3517988813        1.0869281359        2.9687012927
 H         -0.7404905442       -0.1926109147        2.6982935759
 H         -1.7903514877       -2.1646803615        1.8159066567
 C         -1.2035378436       -3.3639939329        0.1754870280
 C         -2.3972816286       -4.1020389339       -0.3505241254
 C         -1.3411701171       -3.6155529788       -1.2949025469
 H         -0.6860867458       -4.3455872166       -1.7485247908
 H         -1.5662159335       -2.7780643242       -1.9363168343
 H         -2.4746333418       -5.1623170252       -0.1633175926
 H         -3.3450551388       -3.5836939234       -0.3368516645
 H         -0.4601259701       -3.9589290531        0.6978608951
