  62
        -98.93593904
 C         -1.8308353873       -1.0985514298       -0.1153083016
 C         -2.3456221895        0.1987387673       -0.3358760488
 C         -3.7994782014        0.3721423112       -0.1418398720
 C         -4.5375294875       -0.6795221760        0.2561855128
 C         -6.0222801165       -0.7527104049        0.5101660232
 C         -6.6516319954        0.4170964365        1.2821078734
 C         -7.5438426543        1.3081289986        0.4160098361
 H         -8.1090140727        0.6729351558       -0.2692499562
 H         -8.2655991642        1.8132979045        1.0617418852
 C         -6.8087108580        2.3830073730       -0.3828350438
 H         -6.4538312171        3.1602321576        0.2975257951
 H         -7.5325711469        2.8473836494       -1.0567508444
 C         -5.6199910764        1.8859082840       -1.2078151288
 H         -5.8561769829        0.9346430831       -1.6835343425
 H         -5.4442199888        2.6070992607       -2.0089740361
 C         -4.3196998213        1.7599146297       -0.3994031086
 H         -3.5059917780        2.2643081848       -0.9302991796
 H         -4.4212430467        2.2826401838        0.5560834217
 H         -5.8720130431        1.0096219152        1.7581604557
 H         -7.2686708419       -0.0037018264        2.0776843777
 H         -6.5305075225       -0.8794094422       -0.4490812393
 H         -6.1681159296       -1.6831080632        1.0636656794
 O         -3.9915304650       -1.9112431038        0.4713036234
 C         -2.6440383442       -2.1561167561        0.2890176055
 O         -2.2954929213       -3.3311611975        0.5216201448
 H          1.6002918233        0.5048448427       -0.9238041273
 C          1.4106220570        0.3984093324        0.1303498903
 C          0.4621617126       -0.4977506143        0.5949956025
 C          0.2361345262       -0.5801123328        1.9675772472
 C          0.9305978203        0.2251792010        2.8479454335
 C          1.8732946740        1.1243040015        2.3794297234
 C          2.1089357177        1.2133578964        1.0133276586
 N          3.0422513636        2.1355466660        0.5152272210
 S          4.1224358689        1.7167877662       -0.6872553840
 O          5.1058540364        2.7770498708       -0.6710705965
 O          3.4360287002        1.5020372221       -1.9346429390
 C          4.8611457252        0.1993487610       -0.1114353391
 C          5.8893378141        0.2805631531        0.8077992362
 C          6.4335696961       -0.8895273918        1.3110024261
 C          5.9369199167       -2.1156775354        0.8947620701
 C          4.9044952691       -2.1799035739       -0.0279355818
 C          4.3581146089       -1.0126229079       -0.5382159034
 H          3.5583564014       -1.0242536290       -1.2598197171
 H          4.5206984865       -3.1339319416       -0.3527183533
 H          6.3580883297       -3.0269927928        1.2890731132
 H          7.2397282325       -0.8431567175        2.0253030888
 H          6.2535007953        1.2533923909        1.0958744716
 H          3.4937032097        2.6961226442        1.2228912228
 H          2.4112077177        1.7618144949        3.0645302723
 H          0.7397740138        0.1531828538        3.9080955981
 H         -0.5042448258       -1.2804688639        2.3304477132
 C         -0.3518510725       -1.3825732046       -0.3167182918
 H         -0.2028625562       -2.4258964874       -0.0029768445
 C          0.0090400914       -1.2607158634       -1.7816404227
 C          1.1421135646       -2.0626380147       -2.3448359539
 C         -0.2722158376       -2.4151359967       -2.6939886467
 H         -0.6268464641       -2.2086058645       -3.6926372128
 H         -0.7030210044       -3.3020609648       -2.2520776202
 H          1.7629266856       -1.6129830473       -3.1059889216
 H          1.6684185150       -2.7217809234       -1.6707484857
 H         -0.1586787600       -0.2654605588       -2.1773099014
 O         -1.6317683918        1.1753047308       -0.6859798253
