  62
        -98.92764256
 C         -1.8123077643        0.6744438949       -0.5254170419
 C         -2.3082287558       -0.6606966412       -0.5564304491
 C         -3.7584913981       -0.8649213873       -0.4098664038
 C         -4.5565329703        0.2050080576       -0.2446318380
 C         -6.0612553173        0.3283189298       -0.1303253375
 C         -6.9272509563       -0.9050703286        0.1101617396
 C         -6.7552204976       -1.5449970643        1.4874944989
 H         -7.1792017561       -0.8722364329        2.2373495740
 H         -7.3321704886       -2.4720782522        1.5089985697
 C         -5.3160772543       -1.8443677518        1.8998068218
 H         -5.3396558739       -2.2780239449        2.9032978847
 H         -4.7519042964       -0.9118553731        1.9669110170
 C         -4.5635550857       -2.8156759696        0.9925759457
 H         -3.6169246453       -3.0573081593        1.4833085438
 H         -5.1340110658       -3.7411514006        0.8923309144
 C         -4.2335369809       -2.2895488218       -0.4146920992
 H         -3.4085574282       -2.8866562652       -0.8133978767
 H         -5.0784436096       -2.4091524037       -1.0889206825
 H         -7.9669953550       -0.5772424441        0.0260902030
 H         -6.7644823324       -1.6374952794       -0.6750783107
 H         -6.3890989218        0.8060766723       -1.0604002764
 H         -6.2422462967        1.0553982203        0.6678216217
 O         -4.0433311981        1.4651504382       -0.2004435824
 C         -2.6890735155        1.7420891273       -0.3254991180
 O         -2.4479173009        2.9606769310       -0.2261278864
 O         -1.5585617529       -1.6615467322       -0.7166706937
 C         -0.3148407780        0.7952484869       -0.7400386896
 C          0.5173836423        1.2765711311        0.4277230784
 C          0.0968175269        2.2263568775        1.3487200925
 C          0.9439693117        2.6410780505        2.3626220098
 C          2.2291493715        2.1424694348        2.4634007644
 C          2.6655491251        1.1970290374        1.5418984247
 C          1.8024856250        0.7585364458        0.5501852384
 H          2.1421169082        0.0093975427       -0.1487006372
 N          3.9603335172        0.6651079535        1.6144166398
 S          4.8227086837        0.3455563637        0.2153436836
 O          6.2086763898        0.3795407676        0.6300341559
 O          4.4536156856        1.2409696314       -0.8553108393
 C          4.3856579336       -1.3302097458       -0.1949573550
 C          3.8751582938       -1.6222138375       -1.4439207591
 C          3.5523679218       -2.9355857613       -1.7469948449
 C          3.7481973688       -3.9292521394       -0.8005027369
 C          4.2665538065       -3.6205672448        0.4483049933
 C          4.5897440124       -2.3093401310        0.7571849359
 H          4.9982953362       -2.0305777542        1.7141141653
 H          4.4173224881       -4.3973727326        1.1805384844
 H          3.4940702735       -4.9500042053       -1.0389119333
 H          3.1468918766       -3.1763606759       -2.7167419319
 H          3.7360443825       -0.8187883112       -2.1506957073
 H          4.5443017830        1.0642575621        2.3346260687
 H          2.8911071104        2.4813232962        3.2459284295
 H          0.5996084659        3.3767444901        3.0740264182
 H         -0.8868156576        2.6563921770        1.2612072027
 H         -0.0146870266       -0.2513945270       -0.9134950228
 C          0.1495250839        1.5509214131       -1.9857830791
 C         -0.7405235630        1.7863160045       -3.1665199605
 C         -0.2688447634        2.9440269599       -2.3383916103
 H          0.4791274858        3.6030086365       -2.7554671480
 H         -0.9845895508        3.4343784829       -1.7001519207
 H         -0.3338445352        1.6505176828       -4.1577343754
 H         -1.7776681022        1.4963409946       -3.0733912088
 H          1.1858827526        1.3110027431       -2.2108055008
