  62
        -98.94286239
 C         -2.3383889716       -0.5255990286       -0.0912454494
 C         -1.3220860855       -0.8078495339        0.8474010032
 C         -0.5386315193       -2.0357841604        0.6301433150
 C         -0.8254710286       -2.8130497215       -0.4290687000
 C         -0.1126074443       -4.0405844351       -0.9402823826
 C          0.4758303131       -5.0305804563        0.0740815818
 C          1.9986568568       -4.9439024018        0.2070535067
 H          2.3741220472       -5.9158320791        0.5355926925
 H          2.4203896531       -4.7482901105       -0.7813029430
 C          2.5197494999       -3.8954530307        1.1879838611
 H          2.2933089069       -4.2107899182        2.2088082620
 H          3.6072127128       -3.8632870932        1.0886563573
 C          1.9689607118       -2.4833107271        0.9872499304
 H          1.9370526936       -2.2239511865       -0.0728835838
 H          2.6580169341       -1.7792392054        1.4604715284
 C          0.5768516022       -2.2819699138        1.6074997056
 H          0.3231093024       -3.1314782608        2.2456903933
 H          0.5863269400       -1.3993628799        2.2531604333
 H         -0.0034520468       -4.9042363361        1.0426410916
 H          0.2320633431       -6.0347254470       -0.2777211701
 H         -0.8494919300       -4.5510377173       -1.5661778029
 H          0.6744503600       -3.6908543379       -1.6164350848
 O         -1.8539242118       -2.5298007859       -1.2805775384
 C         -2.6013733322       -1.3732942958       -1.1635053937
 O         -3.4607018836       -1.2168243735       -2.0567646014
 H         -0.9353293503        0.9107235614       -1.6085340665
 C         -0.9888593997        1.7785544818       -0.9672728008
 C         -2.0480362635        1.9150047424       -0.0783738711
 C         -2.0999500975        3.0522219981        0.7174332577
 C         -1.0962977573        4.0037537410        0.6453957261
 C         -0.0120642407        3.8312185627       -0.1958623908
 C          0.0417284578        2.7026263538       -1.0060602041
 N          1.1299876760        2.4626706765       -1.8698057063
 S          2.0307814881        1.0666443130       -1.6433647514
 O          3.0767738994        1.1374263993       -2.6418554224
 O          1.1792952010       -0.0934497399       -1.6973066803
 C          2.7584846940        1.2560180708       -0.0251361799
 C          1.9625496966        1.1263140768        1.0951252224
 C          2.5308114481        1.3329011628        2.3431557535
 C          3.8725930194        1.6634066938        2.4508563317
 C          4.6576193924        1.7911992041        1.3146488148
 C          4.0961690694        1.5912138460        0.0641016536
 H          4.6659185534        1.6790727118       -0.8468677608
 H          5.7015132811        2.0471443718        1.3989643916
 H          4.3072448258        1.8212685125        3.4253109146
 H          1.9113099459        1.2310846848        3.2200355216
 H          0.9223642105        0.8605037010        0.9944135678
 H          1.7605918139        3.2477845280       -1.9591562178
 H          0.7858666015        4.5577528825       -0.2268411962
 H         -1.1484698783        4.8816219382        1.2710511345
 H         -2.9214260786        3.1887804683        1.4016448369
 C         -3.0703725717        0.8029902194       -0.0242507143
 H         -3.6922985824        0.8559936462       -0.9301365517
 C         -3.9680887666        0.8675142395        1.1934036785
 C         -5.2302559354        1.6746166379        1.1608370140
 C         -5.2971509361        0.1778030634        1.1460762615
 H         -5.6444827092       -0.3343110632        2.0307210462
 H         -5.5641503715       -0.3165412485        0.2229880497
 H         -5.5370396702        2.1894422588        2.0587677370
 H         -5.4658758140        2.1991852143        0.2471248853
 H         -3.4114659344        0.8188919846        2.1219375845
 O         -1.0550717639       -0.0455178088        1.8153112366
