  62
        -98.93527363
 C         -1.7488579996       -0.5559976314       -0.0403461331
 C         -2.9237102304       -1.0205110482        0.6028172980
 C         -4.2198281759       -0.5527116223        0.0750833917
 C         -4.2208080274        0.3085258627       -0.9587058325
 C         -5.4006086896        0.9535575763       -1.6359012179
 C         -6.0090961142        2.0951603894       -0.8056249525
 C         -6.1729300608        1.7924049685        0.6815102116
 H         -5.1994287271        1.5380382509        1.1046749558
 H         -6.5086010156        2.7102004886        1.1715932451
 C         -7.1762839114        0.6909620452        1.0153151976
 H         -8.1564960681        0.9677908275        0.6206696369
 H         -7.2579915307        0.6464777451        2.1044128713
 C         -6.8257480581       -0.7097083606        0.5086808149
 H         -7.0380049126       -0.8078563563       -0.5526081820
 H         -7.4847682507       -1.4154623367        1.0228448493
 C         -5.3969082701       -1.1546545474        0.8041228156
 H         -5.1925568266       -1.0186046148        1.8722193989
 H         -5.3272911485       -2.2360984025        0.6343448714
 H         -6.9776926993        2.3559096346       -1.2355626799
 H         -5.3540538739        2.9651379053       -0.8974104791
 H         -6.1505392185        0.2047770620       -1.8734709116
 H         -5.0335513078        1.3672922882       -2.5779116933
 O         -3.0664866150        0.7587893933       -1.5245865554
 C         -1.8119077609        0.3521916956       -1.0979623671
 O         -0.8767243026        0.8655351415       -1.7397161922
 O         -2.8976960238       -1.8003578628        1.5923607815
 C         -0.4202027569       -1.0417251385        0.5126812851
 C          0.5046079249        0.1188343227        0.7671439245
 C          0.3758790991        0.8657114528        1.9337734691
 C          1.2184011374        1.9321735095        2.1914196470
 C          2.2054328391        2.2803274413        1.2854137310
 C          2.3286208369        1.5510868711        0.1121858286
 C          1.4936498276        0.4718495221       -0.1376357477
 H          1.5966126066       -0.0812899856       -1.0582864345
 N          3.3572264388        1.8888494429       -0.8032225023
 S          4.8680068874        1.3477175752       -0.3219994211
 O          5.2517955356        2.0558372832        0.8721523377
 O          5.7372529919        1.4972012798       -1.4669569747
 C          4.6147487735       -0.3798475820        0.0453256108
 C          4.1898121092       -0.7393942834        1.3087303554
 C          3.8859476851       -2.0678029513        1.5594446761
 C          4.0071494980       -3.0074020924        0.5469038355
 C          4.4376938369       -2.6305520488       -0.7162173935
 C          4.7382263174       -1.3027801806       -0.9739407132
 H          5.0756761006       -0.9673529881       -1.9417407407
 H          4.5324961164       -3.3646895704       -1.5003260359
 H          3.7634936061       -4.0398427509        0.7437582214
 H          3.5471147184       -2.3631841329        2.5395122187
 H          4.1075276079        0.0207241806        2.0683596379
 H          3.1662808920        1.5534436480       -1.7375968353
 H          2.8849654194        3.0960599006        1.4719643540
 H          1.1072886289        2.4969371267        3.1046611443
 H         -0.3968902994        0.5993186923        2.6416397194
 H         -0.6827748318       -1.4881037790        1.4851072595
 C          0.2502773944       -2.1401138311       -0.3002976968
 C         -0.5627846911       -3.2321997999       -0.9256983913
 C          0.1502076297       -2.2392518139       -1.7917151929
 H          1.0221620483       -2.5697833926       -2.3374599508
 H         -0.4331460704       -1.4965248013       -2.3130813164
 H         -0.1891840689       -4.2438534793       -0.8837244218
 H         -1.6376133667       -3.1579418186       -0.8456406766
 H          1.2002747370       -2.4323911317        0.1376805003
