  62
        -98.92949775
 C          2.3748448307        0.9865134353        0.4948010853
 C          3.2319368056        0.6826450954       -0.5887564349
 C          4.3927424051       -0.1838899307       -0.2875209192
 C          4.5755110137       -0.6317967693        0.9664369809
 C          5.6639674016       -1.5253025454        1.5059619419
 C          7.0981691034       -1.2239227263        1.0443906187
 C          7.6642752506       -2.2767502315        0.0898399928
 H          8.7547787481       -2.2493152600        0.1468385456
 H          7.3452752418       -3.2632742271        0.4326212108
 C          7.2739108003       -2.1012925672       -1.3767155288
 H          7.8034327596       -1.2405494612       -1.7910310892
 H          7.6183504941       -2.9854736225       -1.9183203541
 C          5.7774711991       -1.9182069417       -1.6374348782
 H          5.1948364704       -2.5869461257       -1.0049324448
 H          5.5812125903       -2.2073991919       -2.6720825611
 C          5.2947849935       -0.4711296102       -1.4570916854
 H          4.7151328291       -0.1655337481       -2.3337013288
 H          6.1528454715        0.2059100502       -1.4146504455
 H          7.7338481555       -1.1980743278        1.9310379465
 H          7.1415826339       -0.2359543394        0.5886678809
 H          5.5958395398       -1.4276331924        2.5918815615
 H          5.4093002247       -2.5618033354        1.2710421251
 O          3.7115455406       -0.3258537133        1.9777566910
 C          2.6072218749        0.4758041838        1.7735802713
 O          1.9179224810        0.6702472938        2.7958930860
 O          3.0580260869        1.1003756657       -1.7618651988
 C          1.1470791458        1.8733860425        0.3656439019
 C         -0.0555931901        1.0616225748       -0.0413524087
 C         -0.0389771132        0.2639390585       -1.1814815827
 C         -1.1562817718       -0.4682673039       -1.5389900343
 C         -2.3056877447       -0.4279608988       -0.7686626589
 C         -2.3314504154        0.3602015942        0.3735186035
 C         -1.2099542092        1.1004840289        0.7264911831
 H         -1.2302105880        1.7053115824        1.6235737603
 N         -3.4888292165        0.3895905668        1.1690759998
 S         -4.9637886297        0.6900077860        0.4250344562
 O         -4.7960266630        1.4876381942       -0.7673046223
 O         -5.8017644077        1.2498408304        1.4625650155
 C         -5.5701750857       -0.9287641360        0.0001710174
 C         -5.8927205148       -1.2212864489       -1.3104470241
 C         -6.3725652722       -2.4854276412       -1.6162697930
 C         -6.5215348390       -3.4286806779       -0.6111956863
 C         -6.1956789387       -3.1179532347        0.7007775205
 C         -5.7162376273       -1.8560177325        1.0132436487
 H         -5.4559131708       -1.5739858102        2.0198403856
 H         -6.3133767739       -3.8541155874        1.4795958835
 H         -6.8944523620       -4.4118199541       -0.8514625312
 H         -6.6273200735       -2.7287168541       -2.6352849458
 H         -5.7569806065       -0.4574140021       -2.0595166709
 H         -3.3918383190        0.9361498265        2.0125292535
 H         -3.1769157716       -0.9998669136       -1.0432379603
 H         -1.1316952994       -1.0808730592       -2.4274986416
 H          0.8567551532        0.2305267952       -1.7828374926
 H          0.9610163128        2.2473692515        1.3852203391
 C          1.3784930466        3.0907466759       -0.5198606931
 C          0.7129990077        3.3054234135       -1.8424308660
 C          0.3004192505        4.1251958286       -0.6594561789
 H          0.5735407133        5.1690345934       -0.6253999197
 H         -0.6593487801        3.9056823190       -0.2143776105
 H          1.2955398745        3.7712674550       -2.6223978116
 H          0.0273131108        2.5549811048       -2.2023475412
 H          2.3943909216        3.4623397721       -0.4327035678
