  62
        -98.93429218
 C          2.5993702395        0.4137209923       -0.2034564760
 C          2.3176073039        1.5562319315       -0.9881029840
 C          1.6659349599        2.6701435941       -0.2939364345
 C          1.3685707585        2.5552266386        1.0133396647
 C          0.6623683485        3.5852431795        1.8518077496
 C         -0.8660805159        3.5262956273        1.7153051459
 C         -1.4235605063        4.1037031571        0.4127979282
 H         -2.4976912413        4.2370584581        0.5571204132
 H         -0.9925810452        5.0902926035        0.2369959937
 C         -1.1989403342        3.2108471970       -0.8157683095
 H         -0.9708925565        2.1953548055       -0.4812543296
 H         -2.1208060966        3.1605469660       -1.4014454175
 C         -0.0979084587        3.6919447951       -1.7613978760
 H          0.0084730305        2.9585012075       -2.5650352131
 H         -0.3924003333        4.6432934768       -2.2108252115
 C          1.2752224419        3.8714598876       -1.1023206210
 H          1.2786815155        4.7640144442       -0.4772599931
 H          2.0194856821        3.9940506914       -1.8934937560
 H         -1.1803066704        2.4834456705        1.8129282768
 H         -1.2918126898        4.0865231735        2.5512857312
 H          1.0188828806        4.5837305150        1.5961021393
 H          0.9253352882        3.3748608554        2.8906184944
 O          1.6927946198        1.4574647237        1.7440071744
 C          2.2711911803        0.3447307443        1.1526409452
 O          2.4520912410       -0.6103883534        1.9297927561
 O          2.5819163636        1.6313712099       -2.2204911567
 C          3.1458373275       -0.8301461169       -0.8998605095
 C          2.1620133697       -1.9375753002       -0.6037600604
 C          2.3769280690       -3.1428126452        0.0497879916
 C          1.3162905646       -3.9822972969        0.3574770413
 C          0.0147670120       -3.6410206632        0.0453519276
 C         -0.2114243704       -2.4498953492       -0.6286664752
 C          0.8504001790       -1.6354475929       -0.9688946915
 H          0.6516875366       -0.7001311471       -1.4801499881
 N         -1.5505306694       -2.0295141916       -0.8806379086
 S         -2.1117525791       -1.1874029264        0.4856006480
 O         -1.3872553098        0.0555222188        0.6405544362
 O         -2.0844626247       -2.0952363529        1.6037992792
 C         -3.8013391009       -0.8564647191        0.0204770549
 C         -4.6779442380       -1.9225700098       -0.0450464036
 C         -5.9871305548       -1.6891050403       -0.4334810285
 C         -6.3951177789       -0.4010683302       -0.7484208343
 C         -5.5037577199        0.6583266920       -0.6766108013
 C         -4.1916337469        0.4311625528       -0.2904126881
 H         -3.4642699389        1.2240087930       -0.2168146396
 H         -5.8232509870        1.6589288388       -0.9197524232
 H         -7.4149066790       -0.2213957684       -1.0501123178
 H         -6.6837941443       -2.5098452371       -0.4895557901
 H         -4.3162339718       -2.9030653854        0.2156818540
 H         -1.5733112303       -1.3705757793       -1.6510014232
 H         -0.8195824589       -4.2579033966        0.3351178366
 H          1.5125879344       -4.9063372226        0.8802358817
 H          3.3614247566       -3.4357505748        0.3663957736
 H          3.0564620716       -0.6031088614       -1.9763111526
 C          4.6352699584       -0.9624975449       -0.6336104080
 C          5.2511897813       -1.5907362607        0.5768650623
 C          5.4308705528       -2.2256386291       -0.7712008837
 H          6.4046154452       -2.1543016162       -1.2330524126
 H          4.9114005496       -3.1416798106       -0.9990920592
 H          6.0997991267       -1.0901083042        1.0208817857
 H          4.5927376617       -2.0334798724        1.3060777866
 H          5.1293710636       -0.0601003674       -0.9881842968
