  62
        -98.95136472
 C         -1.8230421696       -1.2550528820       -0.2862255087
 C         -2.9097425801       -0.5684130630        0.3021844116
 C         -3.2228770514        0.7430983267       -0.2737485783
 C         -2.4992000820        1.2083436774       -1.3084893885
 C         -2.6852821833        2.5349089772       -1.9926435384
 C         -1.9696957442        3.6892217879       -1.2771735585
 C         -2.6397034344        4.1646126172        0.0127008216
 H         -2.1814023152        5.1195605076        0.2779531916
 H         -3.6992170846        4.3490951563       -0.1712519481
 C         -2.4772540033        3.1999374373        1.1957386016
 H         -1.6494239527        2.5153830981        0.9923613114
 H         -2.2010955436        3.7654765576        2.0895600215
 C         -3.7321961225        2.3965682762        1.5403056818
 H         -3.4856240917        1.7156732764        2.3593482517
 H         -4.5144447131        3.0746393355        1.8903269820
 C         -4.2939233520        1.5613586257        0.3824307419
 H         -4.7790919427        2.2092435453       -0.3472573480
 H         -5.0377167613        0.8712733650        0.7892050820
 H         -0.9452846939        3.3789206288       -1.0539787787
 H         -1.9240961951        4.5308069779       -1.9727347985
 H         -3.7479824036        2.7611266063       -2.0853402282
 H         -2.2604761634        2.4324065476       -2.9935361685
 O         -1.4925649115        0.4968276983       -1.8770962687
 C         -1.0961495703       -0.7193132613       -1.3486069188
 O         -0.1087323999       -1.2290186404       -1.9151553090
 O         -3.5781614795       -1.0264640536        1.2696360117
 C         -1.3529654083       -2.5645057116        0.3200733012
 C          0.0871209017       -2.4270957803        0.7524412009
 C          1.0336448125       -3.4325415795        0.5989056907
 C          2.3488228524       -3.2244101683        0.9790472205
 C          2.7545489114       -2.0052700380        1.4906299704
 C          1.8120972906       -0.9978655188        1.6584560706
 C          0.4884961807       -1.2268132100        1.3251861009
 H         -0.2286588700       -0.4318964906        1.4698614311
 N          2.1660368495        0.2850730615        2.1321129606
 S          2.0275811982        1.5260937114        1.0077962507
 O          2.5048332272        2.7097838618        1.6911726606
 O          0.6837939680        1.5831345102        0.4974941909
 C          3.1914822583        1.0709738125       -0.2650147596
 C          4.4717422979        1.5875737736       -0.1939316098
 C          5.4147852480        1.1779565745       -1.1217030500
 C          5.0660222987        0.2521846442       -2.0940941200
 C          3.7788502291       -0.2587951869       -2.1485621497
 C          2.8266513290        0.1497202122       -1.2259746895
 H          1.8177294893       -0.2330407687       -1.2580361993
 H          3.4990280496       -0.9783038372       -2.9012966497
 H          5.8002261188       -0.0724088551       -2.8145288601
 H          6.4155021877        1.5771286854       -1.0823248502
 H          4.6941145874        2.3064144938        0.5783682201
 H          3.0898101795        0.3235053623        2.5423929904
 H          3.7869429613       -1.8302911670        1.7539058602
 H          3.0722091731       -4.0151466777        0.8520340003
 H          0.7427819233       -4.3784678297        0.1719304608
 H         -1.9755430180       -2.7167313422        1.2148417313
 C         -1.5826480874       -3.7157000918       -0.6373445288
 C         -1.8750294161       -5.0906958121       -0.1167732487
 C         -2.9620095870       -4.2872499530       -0.7629912785
 H         -3.3119328169       -4.5798854733       -1.7414591484
 H         -3.7309089072       -3.8631676938       -0.1337307083
 H         -1.4809046655       -5.9401342117       -0.6540433388
 H         -1.9139667458       -5.2229610321        0.9539564613
 H         -0.9945348377       -3.6228954513       -1.5435356489
