  62
        -98.93874583
 C          1.9585111429        1.5458625872       -0.0408550302
 C          1.7448222444        0.2626908369       -0.5983453268
 C          2.9200827654       -0.6252859712       -0.6421230935
 C          4.1054266074       -0.1771562592       -0.1942864421
 C          5.4327025270       -0.8933315875       -0.1917996273
 C          5.4424140937       -2.3559324538        0.2767327286
 C          4.3842244887       -2.7090103142        1.3321359578
 H          4.8708470400       -3.2245786809        2.1623853299
 H          3.9351345374       -1.7989811065        1.7337435518
 C          3.2856429420       -3.6263434149        0.7899547099
 H          2.7991540908       -4.1246863265        1.6319930537
 H          3.7518445519       -4.4016818630        0.1778557109
 C          2.1888282098       -2.9385586793       -0.0232863500
 H          1.5611810772       -3.7198185901       -0.4572392385
 H          1.5525347836       -2.3425606528        0.6365875357
 C          2.6740512765       -2.0157316944       -1.1525462329
 H          3.5516234184       -2.4245450507       -1.6477520410
 H          1.8654401324       -1.9270639863       -1.8828118997
 H          6.4374293648       -2.5522128166        0.6796813082
 H          5.3173481034       -3.0138965106       -0.5822179104
 H          5.8525114267       -0.8374854904       -1.2002647929
 H          6.0766865536       -0.2960064355        0.4579892124
 O          4.2669818147        1.0764107449        0.3180213382
 C          3.2052833901        1.9581458625        0.4233867140
 O          3.4941305324        3.0568712907        0.9406744352
 H         -1.8544965137        2.2853481382       -0.6637518838
 C         -1.6329390622        1.8183736586        0.2830589283
 C         -0.3457650835        1.8608671570        0.7930628252
 C         -0.0984226069        1.2520993924        2.0209264128
 C         -1.1072658802        0.6047824813        2.7073391275
 C         -2.3886426957        0.5506536298        2.1863830163
 C         -2.6477343332        1.1618634638        0.9682083373
 N         -3.9479335861        1.1095268053        0.4282477513
 S         -4.6336407203       -0.4072335644        0.2308727523
 O         -5.7150059509       -0.2099193120       -0.7085182014
 O         -5.0041326960       -0.9327968064        1.5207850873
 C         -3.3499697037       -1.4050332714       -0.4980688949
 C         -2.6064219140       -2.2529128169        0.2960487695
 C         -1.5777642718       -2.9782542340       -0.2819235120
 C         -1.3081937316       -2.8386161356       -1.6333699185
 C         -2.0627334702       -1.9808377218       -2.4171624363
 C         -3.0919750251       -1.2527241899       -1.8455417538
 H         -3.7062800942       -0.5812550473       -2.4243812058
 H         -1.8457222936       -1.8718208407       -3.4677184729
 H         -0.5032670656       -3.4003324515       -2.0805548215
 H         -0.9858541944       -3.6440126443        0.3256230662
 H         -2.8475874935       -2.3346034434        1.3433245010
 H         -4.0440937140        1.6384050854       -0.4272467680
 H         -3.1864468512        0.0401413138        2.7009841362
 H         -0.8957916418        0.1344279674        3.6560174687
 H          0.9047588320        1.2852507177        2.4252196683
 C          0.7996500373        2.5203838746        0.0655758446
 H          1.1596544791        3.3613652148        0.6757206968
 C          0.4348976601        3.0380438327       -1.3104415893
 C         -0.2014974896        4.3857606558       -1.4679354901
 C          1.2219519904        4.1748588873       -1.8865963202
 H          1.4539326615        4.1601078160       -2.9410042735
 H          2.0068517059        4.5941381953       -1.2739693437
 H         -0.3864102040        4.9597123350       -0.5724560795
 H         -0.9451162368        4.5208245076       -2.2392211115
 H          0.1358283036        2.2453555673       -1.9871210703
 O          0.6345740205       -0.1212971582       -1.0458024665
