  62
        -98.93691377
 C          2.4209853185        1.2418412048        0.1639828122
 C          2.3292851996       -0.0156877584       -0.4819796889
 C          3.6087953649       -0.6185163970       -0.8848498749
 C          4.7645537105        0.0244494419       -0.6421233422
 C          6.1415960946       -0.4490119506       -1.0210921094
 C          6.7647776900       -1.4258599139       -0.0145453922
 C          6.1567687492       -2.8289585821       -0.0079707201
 H          6.8228175358       -3.4638567059        0.5796048814
 H          6.1440463873       -3.2231196753       -1.0245411117
 C          4.7460697779       -2.9048634886        0.5928711771
 H          4.5492713870       -2.0029509203        1.1770492154
 H          4.6879772685       -3.7505626759        1.2816912418
 C          3.6273481782       -3.0810274139       -0.4341956000
 H          2.6707079603       -3.0802925010        0.0950878872
 H          3.7357953812       -4.0467821546       -0.9329881589
 C          3.5734155484       -1.9829182658       -1.5044087191
 H          2.6284658151       -2.0781341361       -2.0455796148
 H          4.3950174296       -2.1033531792       -2.2104057050
 H          6.6899898673       -0.9915894264        0.9850108140
 H          7.8254735419       -1.5137140811       -0.2604694011
 H          6.1108685554       -0.9111049471       -2.0081724540
 H          6.7723437649        0.4410854130       -1.0725205460
 O          4.8103146622        1.2295442409       -0.0138909405
 C          3.6521220546        1.8483158902        0.4279470502
 O          3.8469772236        2.9187344928        1.0373080173
 H         -1.4475776277        1.3857647827        0.0267767036
 C         -1.0758066547        0.8429785863        0.8783091224
 C          0.2292063015        1.0157334338        1.3111295269
 C          0.6740969604        0.2770147603        2.4048573937
 C         -0.1591376364       -0.6290187076        3.0301545502
 C         -1.4558882338       -0.8119355599        2.5835076390
 C         -1.9161192209       -0.0677825068        1.5036814297
 N         -3.2503733433       -0.2015251545        1.0775480498
 S         -3.6782104366       -0.0581812722       -0.5473802748
 O         -3.0084431679       -1.0588436439       -1.3477040127
 O         -3.5202215503        1.3126471331       -0.9614563271
 C         -5.4160712141       -0.4433436279       -0.4204845245
 C         -5.8542282449       -1.7241269493       -0.6985546378
 C         -7.2035492601       -2.0146007646       -0.5704086617
 C         -8.0870898504       -1.0253198629       -0.1660447585
 C         -7.6330057385        0.2562487886        0.1082896222
 C         -6.2854856079        0.5530140483       -0.0190489082
 H         -5.8880963323        1.5356862687        0.1739836542
 H         -8.3232997046        1.0237745899        0.4191872207
 H         -9.1365450596       -1.2537175674       -0.0671459498
 H         -7.5598387663       -3.0089112659       -0.7866459521
 H         -5.1328367432       -2.4585387449       -1.0195288009
 H         -3.6972708202       -1.0162376785        1.4770963290
 H         -2.1053571712       -1.5262850911        3.0667747727
 H          0.2042804237       -1.2043537318        3.8686927386
 H          1.6920243194        0.4127872682        2.7464095849
 C          1.1877443591        1.9799272440        0.6551026239
 H          1.5578080319        2.6674461987        1.4346498474
 C          0.5257307063        2.8451546750       -0.4071812527
 C          1.3043572281        3.4102676379       -1.5562507308
 C          0.2778192787        2.3465925054       -1.7979318568
 H         -0.6508295518        2.6170264236       -2.2803390385
 H          0.6106797661        1.3482644473       -2.0358562110
 H          2.3478515334        3.1419038483       -1.6368092010
 H          1.0868434042        4.4189032840       -1.8738588966
 H         -0.2371737280        3.4924093939        0.0156412824
 O          1.2485888766       -0.6162829137       -0.7173390585
