  62
        -98.94451869
 C         -1.7064458736       -1.0841548735       -0.0199922322
 C         -2.9246013200       -1.0914673679        0.7116300516
 C         -4.0879031531       -0.4783469024        0.0598582909
 C         -3.9529040460        0.0263146176       -1.1795799513
 C         -5.0379734218        0.7210997172       -1.9485826864
 C         -5.0157105207        2.2349278909       -1.6950756494
 C         -4.9511068296        2.6122371786       -0.2149243844
 H         -3.9913165816        2.2886114681        0.1949900158
 H         -4.9726008768        3.7026768238       -0.1560856813
 C         -6.0875862959        2.0316099213        0.6383489892
 H         -6.9104237676        1.7176116089       -0.0049267131
 H         -6.4699365116        2.8177373164        1.2928535200
 C         -5.6739504240        0.8652523934        1.5379901955
 H         -4.7896871114        1.1448576984        2.1165515092
 H         -6.4842703403        0.6806016856        2.2482466410
 C         -5.3828076574       -0.4595816632        0.8217667683
 H         -5.2926614543       -1.2373795726        1.5856528941
 H         -6.2189010696       -0.7155157949        0.1677369498
 H         -4.1404407366        2.6574525785       -2.1942030182
 H         -5.9077902095        2.6738142843       -2.1455885431
 H         -6.0023284671        0.3078571921       -1.6595482066
 H         -4.8781328902        0.5374690498       -3.0124133792
 O         -2.7806231586        0.0000287697       -1.8585085007
 C         -1.6278372096       -0.5350255188       -1.2998318215
 O         -0.6337662413       -0.4459994933       -2.0492825248
 O         -3.0322015555       -1.5978752681        1.8602951316
 C         -0.5089976301       -1.7238550002        0.6616681092
 C          0.4126319036       -0.7057375604        1.2885425784
 C          0.7929759605       -0.8058012860        2.6215812420
 C          1.6779723205        0.1038231231        3.1752223772
 C          2.1990460857        1.1343888529        2.4128233703
 C          1.8165603686        1.2466847538        1.0833574585
 C          0.9384305798        0.3287349263        0.5279786501
 H          0.6619618093        0.4158259634       -0.5123090090
 N          2.3604484634        2.2837773315        0.2868513002
 S          3.9819057164        2.0593904611       -0.0839422241
 O          4.7579022191        2.2333638644        1.1173681945
 O          4.2724800744        2.9664992485       -1.1708065412
 C          4.0707004109        0.3661880887       -0.6349471149
 C          3.7602013806        0.0850275022       -1.9501117025
 C          3.7347292228       -1.2363157989       -2.3647256387
 C          4.0072503105       -2.2478562479       -1.4569290692
 C          4.3110670797       -1.9492595547       -0.1377197173
 C          4.3413463674       -0.6294692295        0.2818192323
 H          4.5726981273       -0.3543081344        1.2976824360
 H          4.5177362200       -2.7385855666        0.5668157485
 H          3.9821657945       -3.2758384726       -1.7835750651
 H          3.4921170079       -1.4717045125       -3.3886869536
 H          3.5531174681        0.9000160304       -2.6255544520
 H          1.8508631573        2.4039642461       -0.5785051053
 H          2.9023445052        1.8430727996        2.8191293018
 H          1.9648061146        0.0104895011        4.2114784174
 H          0.3843126441       -1.6001636284        3.2284446886
 H         -0.9364487908       -2.3318409895        1.4702636570
 C          0.2900348416       -2.6347445617       -0.2520349413
 C          1.0375176461       -3.7881493924        0.3429544546
 C         -0.1867388453       -4.0354159270       -0.4853180433
 H         -0.0712678211       -4.4597934406       -1.4711081477
 H         -1.0916902768       -4.3443279820        0.0177615694
 H          1.9984873957       -4.0454554080       -0.0726817598
 H          0.9633422574       -3.9364914817        1.4093477493
 H          0.7422390518       -2.1150918251       -1.0870278791
