  62
        -98.94848575
 C         -2.3581387696       -0.6172576499        0.1713248701
 C         -1.5457874695       -0.0112245802       -0.8166244600
 C         -1.6833818792        1.4449748598       -0.9633936101
 C         -2.5278343390        2.1133996801       -0.1586967002
 C         -2.7666757687        3.5947385801       -0.1985335603
 C         -1.8413883185        4.3486384400        0.7651093996
 C         -0.3653390486        3.9725903097        0.6330466096
 H          0.1947734515        4.6118799697        1.3199877296
 H         -0.2174777188        2.9441425297        0.9719837297
 C          0.2062546314        4.1215663994       -0.7837964104
 H          1.1858344515        4.5993439792       -0.7134738004
 H         -0.4336006184        4.7755919595       -1.3782598305
 C          0.4107720511        2.7940163693       -1.5159684003
 H          0.9298201810        2.1003043793       -0.8498863802
 H          1.0588487412        2.9734904191       -2.3783168503
 C         -0.8631979490        2.1119224296       -2.0317692902
 H         -1.4676222989        2.8325252896       -2.5875350603
 H         -0.5599271592        1.3155637294       -2.7177086101
 H         -1.9621993983        5.4196069400        0.5885171595
 H         -2.1570716486        4.1354494702        1.7891966496
 H         -2.6152276486        3.9515845000       -1.2156776004
 H         -3.8029555287        3.7799957904        0.0911035097
 O         -3.2590811291        1.5059402203        0.8114313399
 C         -3.1716227794        0.1391524004        1.0171219900
 O         -3.8622568295       -0.2806959694        1.9687219900
 O         -0.7525276296       -0.6480930104       -1.5581921999
 C         -2.3005970299       -2.1127421299        0.4386000802
 C         -0.8616485500       -2.5687297902        0.4386073503
 C         -0.3780587703       -3.6345126504       -0.3089835796
 C          0.9648634597       -3.9692837807       -0.2653009096
 C          1.8550525498       -3.2347967108        0.4960328803
 C          1.3796351001       -2.1656513806        1.2469267602
 C          0.0284099401       -1.8661056403        1.2422352802
 H         -0.3279832997       -1.0348125702        1.8340561101
 N          2.2457320603       -1.3550800907        2.0120802401
 S          2.3875650006        0.2481838992        1.5393463800
 O          3.3099011007        0.8399854191        2.4854319099
 O          1.0838671607        0.8526530695        1.4583841299
 C          3.1677017006        0.1756693989       -0.0645689900
 C          4.5143766306        0.4738271586       -0.1524939401
 C          5.1475048206        0.3722241883       -1.3801740401
 C          4.4275855005       -0.0337538416       -2.4939748800
 C          3.0789988904       -0.3347348913       -2.3868726100
 C          2.4358282105       -0.2325774511       -1.1620195900
 H          1.3838849204       -0.4557830108       -1.0668020700
 H          2.5120018504       -0.6510717513       -3.2476436700
 H          4.9192506805       -0.1155322418       -3.4505818700
 H          6.1962849907        0.6075976981       -1.4638665201
 H          5.0302464607        0.7870587586        0.7408927399
 H          3.1722748302       -1.7445459209        2.1237804401
 H          2.9074081998       -3.4764595110        0.5055805003
 H          1.3262886695       -4.8001899908       -0.8517483295
 H         -1.0462154404       -4.1911337703       -0.9451776696
 H         -2.6895810699       -2.2324675397        1.4640298702
 C         -3.1992403601       -2.9415341298       -0.4679904297
 C         -4.4087907500       -2.3411746096       -1.1186786898
 C         -3.2311565201       -2.7421576699       -1.9524914097
 H         -3.3266535603       -3.6124041600       -2.5851907496
 H         -2.6032805999       -1.9675131601       -2.3625945098
 H         -5.3078771201       -2.9368073694       -1.1724802297
 H         -4.5931410397       -1.2882168595       -0.9605338999
 H         -3.3097520303       -3.9599689697       -0.1084615296
