  62
        -98.93950103
 C         -2.4236964041       -0.9420830508       -0.6319159607
 C         -3.6392427092       -0.8663076207        0.0998212506
 C         -4.4641574567        0.3238049320       -0.1269358363
 C         -4.0596440042        1.2541058555       -1.0101774097
 C         -4.7992391453        2.5123568073       -1.3751420936
 C         -4.5596722230        3.6802260898       -0.4084770098
 C         -5.2343351450        3.5432303405        0.9569972469
 H         -5.1676991374        4.5170158921        1.4462180930
 H         -6.2927271173        3.3209855261        0.8175898824
 C         -4.6008467879        2.4870786139        1.8735814978
 H         -3.6037288940        2.2341019508        1.5052965815
 H         -4.4740174066        2.9030460192        2.8756334221
 C         -5.4150519156        1.2011671273        2.0176985941
 H         -4.8553980015        0.5118063397        2.6551828357
 H         -6.3640822659        1.4214864715        2.5115070443
 C         -5.7088677071        0.4873632231        0.6917093910
 H         -6.4651360882        1.0343940594        0.1291308929
 H         -6.0923427634       -0.5107665957        0.9169006953
 H         -3.4831051665        3.8055064176       -0.2716549986
 H         -4.9413660861        4.5839202949       -0.8891364433
 H         -5.8675589991        2.3034304277       -1.4374608571
 H         -4.4434992625        2.8059388237       -2.3650627587
 O         -2.9012960819        1.1369044733       -1.7084428105
 C         -2.0454729010        0.0596772012       -1.5255568469
 O         -1.0124839431        0.1310718968       -2.2223969047
 O         -4.0203616301       -1.7613784906        0.8999287406
 C         -1.5571431538       -2.1659009126       -0.3842189203
 C         -0.4126677696       -1.8397337853        0.5464886809
 C         -0.3781322124       -2.3569448703        1.8361506558
 C          0.6730681487       -2.0604853735        2.6863457432
 C          1.7061248519       -1.2386445097        2.2729936158
 C          1.6778902196       -0.7118439190        0.9878688097
 C          0.6287172087       -1.0207353675        0.1333405930
 H          0.6035557658       -0.5972311290       -0.8599936265
 N          2.7018330529        0.1615006602        0.5581874111
 S          4.2863790285       -0.4209892469        0.6263084872
 O          4.4263806840       -1.6006198840       -0.2009028491
 O          4.6588700628       -0.5757874174        2.0094097584
 C          5.1705473222        0.9479572607       -0.0917330583
 C          5.4221943838        2.0555503273        0.6950296632
 C          6.0821100417        3.1377462447        0.1353966651
 C          6.4766704452        3.0945029669       -1.1937259398
 C          6.2183307560        1.9750080382       -1.9700354268
 C          5.5569345539        0.8897438718       -1.4166916978
 H          5.3406634682       -0.0033832226       -1.9810439872
 H          6.5277736191        1.9432874819       -3.0023815134
 H          6.9903124448        3.9380469001       -1.6273144556
 H          6.2865054590        4.0097182674        0.7354988925
 H          5.1035860205        2.0414713311        1.7241091337
 H          2.5173947982        0.4884067653       -0.3823563664
 H          2.5340840202       -1.0079821112        2.9229900971
 H          0.6876101030       -2.4714121408        3.6846802597
 H         -1.1886553207       -2.9871960523        2.1730259973
 H         -2.2137808497       -2.8772677259        0.1346991971
 C         -1.0594548697       -2.8182899811       -1.6591056090
 C         -0.6012128892       -4.2439486898       -1.6125055356
 C         -1.8816434671       -3.8900176020       -2.3064059341
 H         -1.9148152934       -3.9320033494       -3.3847220560
 H         -2.8118962022       -4.1632416391       -1.8300534276
 H          0.2494679713       -4.5311134774       -2.2114609373
 H         -0.6628125832       -4.7572450414       -0.6647198348
 H         -0.5274628078       -2.1408612790       -2.3141407517
