  62
        -98.94189794
 C          0.0822858682        2.1106537990        0.4404697305
 C         -0.6267481843        1.0574865272        1.0653593585
 C         -2.0868672194        1.0287424050        0.8475259682
 C         -2.6489259440        1.9287838688        0.0247261370
 C         -4.0902579116        2.0201064923       -0.3947139216
 C         -4.3256742844        1.2326450295       -1.6949204397
 C         -4.6795635530       -0.2402443055       -1.4992857143
 H         -5.6806184773       -0.3148024174       -1.0679481403
 H         -4.7124669385       -0.7000925135       -2.4899339432
 C         -3.7074839403       -1.0374465354       -0.6253614502
 H         -2.6783508683       -0.7904222279       -0.8983265081
 H         -3.8529653598       -2.0959363187       -0.8573609478
 C         -3.9323040376       -0.8213640694        0.8788877201
 H         -4.0042857006       -1.7918736043        1.3747549273
 H         -4.8941141515       -0.3291948873        1.0244264824
 C         -2.8329773620       -0.0348618334        1.6064356427
 H         -3.2609247100        0.4208425756        2.5060946466
 H         -2.0545750636       -0.7265045290        1.9426936043
 H         -5.1387077772        1.7050070014       -2.2505771306
 H         -3.4218140121        1.3112479780       -2.3053360185
 H         -4.7471721197        1.6751940146        0.3982962590
 H         -4.2922185068        3.0762481075       -0.5854165243
 O         -1.9226922881        2.8917392056       -0.6078522007
 C         -0.5622591927        3.0120678898       -0.4109176597
 O         -0.0374469693        3.9576555551       -1.0355619606
 O         -0.0935824759        0.1670549165        1.7805709360
 C          1.5856072405        2.3151255409        0.5649047643
 C          2.3061837133        1.4742040831       -0.4614550553
 C          3.2351721442        2.0275357751       -1.3342928367
 C          3.8461553611        1.2433226665       -2.2971808096
 C          3.5206763439       -0.0951995961       -2.4275250129
 C          2.5928585880       -0.6554273558       -1.5573662022
 C          2.0207548394        0.1212174943       -0.5626409865
 H          1.3118301540       -0.3249064661        0.1142016086
 N          2.2118335764       -2.0023704556       -1.6533827130
 S          0.6070672681       -2.4057625173       -1.3702385175
 O          0.4075883435       -3.6350519748       -2.1142093653
 O         -0.2843180883       -1.3225524600       -1.7181163613
 C          0.5082440837       -2.7951614460        0.3639515544
 C          1.6493147367       -2.9368240330        1.1255368297
 C          1.5204433662       -3.2804613297        2.4619508889
 C          0.2638262854       -3.4829194042        3.0089080491
 C         -0.8717037129       -3.3446131027        2.2272618240
 C         -0.7503620304       -2.9982025715        0.8916538211
 H         -1.6078633851       -2.8666790152        0.2514088578
 H         -1.8504321932       -3.4969174204        2.6544870201
 H          0.1673855382       -3.7437641460        4.0511890933
 H          2.4028157239       -3.3824506421        3.0734698854
 H          2.6137886554       -2.7628267452        0.6775589538
 H          2.5879538192       -2.5040248030       -2.4446057711
 H          3.9723310530       -0.6994657757       -3.1996432703
 H          4.5665258418        1.6837955124       -2.9698492428
 H          3.4607104988        3.0818499457       -1.2702518167
 H          1.7653399995        3.3705842969        0.3170908074
 C          2.1291413504        2.0482288499        1.9548070332
 C          3.4201622095        2.6873074162        2.3655206547
 C          2.1285859027        3.1513432352        2.9679876767
 H          1.9166707017        2.9037583900        3.9970307855
 H          1.7380592876        4.1111129411        2.6613527701
 H          4.1003237601        2.1205415882        2.9822135271
 H          3.9080889144        3.3362110041        1.6540669937
 H          1.9241399806        1.0467111470        2.3080899650
