  62
        -98.94027846
 C         -1.1195644996       -1.6327058929       -0.3059765449
 C         -1.1940672241       -0.2258874312       -0.4392335127
 C         -2.3231479741        0.4470655605        0.2370731563
 C         -3.2312398228       -0.2945911439        0.8953800306
 C         -4.4761007566        0.1764092361        1.5974511674
 C         -5.6043425913        0.5506604747        0.6186213561
 C         -5.1572288110        1.3006526633       -0.6344149107
 H         -4.3885673917        0.7178155270       -1.1450862848
 H         -6.0165929497        1.3648308777       -1.3070108079
 C         -4.6443354330        2.7190435489       -0.3981192092
 H         -4.3851712293        3.1400863288       -1.3726603115
 H         -5.4502849606        3.3247785562        0.0228059415
 C         -3.4259230099        2.8421754561        0.5172955183
 H         -3.7057819961        2.6828456184        1.5553144172
 H         -3.0681795090        3.8741644780        0.4492319673
 C         -2.2447310538        1.9511831197        0.1431321148
 H         -1.3865412546        2.2287570215        0.7701526597
 H         -1.9423659731        2.1700085206       -0.8869691530
 H         -6.3457329350        1.1439493707        1.1561534139
 H         -6.0844658985       -0.3753854121        0.2937026412
 H         -4.8180462794       -0.6513860094        2.2226747454
 H         -4.2340308446        1.0067214456        2.2550468233
 O         -3.1481729419       -1.6539180471        0.9588520009
 C         -2.0904624830       -2.3439291782        0.4039364346
 O         -2.1303614496       -3.5778370820        0.5923417153
 O         -0.3748966626        0.4699872664       -1.0967152684
 C          0.0236293765       -2.4727903564       -0.8575231397
 C          1.2070447232       -2.3954760735        0.0773519091
 C          1.7042323827       -3.5286482060        0.7100697052
 C          2.7688966560       -3.4306690208        1.5889531059
 C          3.3442204767       -2.2034168418        1.8662924083
 C          2.8516270338       -1.0646103434        1.2386948954
 C          1.8059089338       -1.1709723037        0.3355066797
 H          1.4248708609       -0.2835351910       -0.1402744039
 N          3.4098681627        0.1988052342        1.4788253251
 S          2.4397569330        1.5646085012        1.4560918650
 O          3.2097996280        2.5549163839        2.1852671683
 O          1.1229427719        1.2985139429        1.9902264459
 C          2.3629617426        2.0712512180       -0.2484820549
 C          1.4001577170        2.9956416253       -0.5966806554
 C          1.3352614949        3.4384846156       -1.9072123856
 C          2.2345408212        2.9536695440       -2.8431128875
 C          3.2015270146        2.0316142519       -2.4754498994
 C          3.2720956849        1.5852070715       -1.1654209771
 H          4.0049285762        0.8591017414       -0.8543065926
 H          3.8978254554        1.6523176560       -3.2064045611
 H          2.1776049632        3.2931256222       -3.8655837070
 H          0.5794586217        4.1525459462       -2.1932564654
 H          0.7125632128        3.3399094650        0.1592341216
 H          4.1005899379        0.2395116200        2.2135714205
 H          4.1624426486       -2.1244773944        2.5658899083
 H          3.1464022618       -4.3176083818        2.0750375090
 H          1.2385331230       -4.4855826941        0.5245105814
 H         -0.3410996489       -3.5089798175       -0.8553292835
 C          0.4246521098       -2.1061388565       -2.2730609496
 C          1.1506650633       -3.1186891833       -3.1048861569
 C         -0.2697843416       -2.7639836114       -3.4255690681
 H         -0.4711759362       -2.1757705724       -4.3080535183
 H         -1.0405890226       -3.4864161001       -3.1981450754
 H          1.9283440961       -2.7756694812       -3.7694128335
 H          1.3427751426       -4.0848485736       -2.6631678747
 H          0.7002849454       -1.0661753917       -2.3851910484
