  62
        -98.94520693
 C          2.4593819827       -1.2274491364        0.0879253927
 C          3.4564437918       -0.7147758471       -0.7821856352
 C          4.2456097054        0.4096952718       -0.2707352688
 C          4.0041933714        0.8853623286        0.9642187150
 C          4.7304074580        2.0198962385        1.6342129927
 C          4.1921684322        3.4081283625        1.2612097556
 C          4.5311173012        3.8784078167       -0.1539399834
 H          4.2871248438        4.9413659724       -0.2042804587
 H          5.6044965323        3.7819874722       -0.3199550890
 C          3.7677019863        3.1444421113       -1.2653491224
 H          2.9022888879        2.6323223582       -0.8369862576
 H          3.3821773657        3.8720598684       -1.9831113886
 C          4.6052027558        2.1344791547       -2.0502225450
 H          3.9555900353        1.6480668490       -2.7820899822
 H          5.3943497931        2.6578886964       -2.5943484154
 C          5.2491438981        1.0410093771       -1.1878552742
 H          5.6301300733        0.2610673532       -1.8514153016
 H          6.0805803423        1.4526940399       -0.6164954235
 H          3.1076431772        3.4102191528        1.3964194489
 H          4.6160866618        4.1231697107        1.9701186920
 H          4.6030244556        1.8788547841        2.7097074563
 H          5.7936645837        1.9648873025        1.3992651114
 O          3.0517702319        0.3563650113        1.7760481347
 C          2.2392253306       -0.6873079202        1.3550194550
 O          1.3943316473       -1.0343167968        2.2045693465
 O          3.6774431932       -1.1801435758       -1.9311211779
 C          1.5836059699       -2.3545656712       -0.4378594053
 C          0.2322830736       -1.7673617314       -0.7632646284
 C          0.0012672271       -1.2284848460       -2.0256050849
 C         -1.1975366469       -0.6050092527       -2.3182152431
 C         -2.1853543544       -0.4935350202       -1.3551580249
 C         -1.9573730030       -1.0133566240       -0.0885481566
 C         -0.7649987559       -1.6643633916        0.1949250767
 H         -0.5935028776       -2.0471916946        1.1888165716
 N         -2.9457158754       -0.8735850601        0.9055171681
 S         -3.4845442198        0.6911844070        1.2085946768
 O         -2.4823540220        1.6767286490        0.8720750490
 O         -3.9458204238        0.6800558545        2.5799919662
 C         -4.8943174615        0.8614952431        0.1322855777
 C         -4.9456392537        1.8972133110       -0.7798590686
 C         -6.0563080254        2.0123456442       -1.6016001078
 C         -7.0906692423        1.0952306536       -1.4963814455
 C         -7.0249829184        0.0620563106       -0.5732588761
 C         -5.9183075703       -0.0577948816        0.2519311523
 H         -5.8290659902       -0.8418760923        0.9850125656
 H         -7.8313972634       -0.6490244273       -0.4942748660
 H         -7.9531878924        1.1867012693       -2.1374169728
 H         -6.1088996350        2.8153725540       -2.3191401174
 H         -4.1145592012        2.5828200766       -0.8293474257
 H         -2.6886279032       -1.3181158108        1.7762270491
 H         -3.1171755538        0.0035863963       -1.5702688633
 H         -1.3633934398       -0.1953830723       -3.3030177362
 H          0.7836301216       -1.2874136533       -2.7691194895
 H          2.0536161462       -2.6687262386       -1.3792654083
 C          1.5235510797       -3.5451652972        0.4951491046
 C          0.9832023890       -4.8448272951       -0.0197749100
 C          2.4472807492       -4.7020873331        0.2648784628
 H          2.8590192566       -5.2095689668        1.1243463196
 H          3.1273679114       -4.6400497986       -0.5719274685
 H          0.3871401532       -5.4540709098        0.6421298428
 H          0.6683968708       -4.8773676965       -1.0517413818
 H          1.3139368534       -3.2811131312        1.5239835301
