  62
        -98.94292337
 C          1.9363736866        0.6473516558        0.8119401143
 C          2.8638504076        1.1816679318       -0.1161163589
 C          4.2318816900        0.6452207545       -0.0377058720
 C          4.5305018360       -0.2874895381        0.8833869162
 C          5.8646000269       -0.9594883144        1.0266512468
 C          5.9318828636       -2.2446825736        0.1896332069
 C          5.4684107261       -2.0663864495       -1.2562998309
 H          5.5893702360       -3.0295934708       -1.7568657823
 H          4.4007617072       -1.8341904794       -1.2620581387
 C          6.2271773792       -0.9847886811       -2.0379973375
 H          6.4770023865       -1.3779070926       -3.0257296623
 H          7.1666859933       -0.7545029389       -1.5342746490
 C          5.4399577366        0.3081708653       -2.2585171725
 H          5.9746856720        0.9094225874       -2.9985837435
 H          4.4578552212        0.0720139996       -2.6756647112
 C          5.2374554844        1.1845315412       -1.0161301260
 H          6.1977235172        1.3569759272       -0.5263330904
 H          4.8432086851        2.1484066188       -1.3504444915
 H          6.9601234403       -2.6108746554        0.2019107767
 H          5.2971553106       -2.9985536763        0.6614841015
 H          6.0106992243       -1.2132383700        2.0780036759
 H          6.6480767840       -0.2705015674        0.7171357300
 O          3.6202261272       -0.7638089183        1.7709949657
 C          2.3104551805       -0.3180687712        1.7518871737
 O          1.5827020836       -0.8425149891        2.6200421623
 O          2.5903870548        2.0604389815       -0.9746114333
 C          0.4764321770        1.0748770907        0.8646728022
 C         -0.3189287615        0.3744039027       -0.2113399757
 C         -0.1220459825        0.6480993959       -1.5616962074
 C         -0.8479780904       -0.0261795902       -2.5256925658
 C         -1.7960925854       -0.9681738328       -2.1656892127
 C         -2.0012531072       -1.2488067107       -0.8208412977
 C         -1.2593153141       -0.5820138060        0.1451830107
 H         -1.4178285886       -0.8250570182        1.1855748757
 N         -2.9610745558       -2.1993371460       -0.4212492795
 S         -4.1470005034       -1.7145456485        0.6570332745
 O         -3.5695018398       -1.4667126816        1.9525671812
 O         -5.1561238031       -2.7477758667        0.5881682010
 C         -4.7725410554       -0.1998557915       -0.0465278277
 C         -5.7965638524       -0.2696939981       -0.9709966814
 C         -6.2281060583        0.8961568580       -1.5824950810
 C         -5.6219882068        2.1039521991       -1.2707120601
 C         -4.5939403375        2.1570643541       -0.3421535904
 C         -4.1632944519        0.9953260887        0.2785292613
 H         -3.3694047198        0.9969672490        1.0070700312
 H         -4.1204905795        3.0947453618       -0.0992613754
 H         -5.9531091920        3.0103928462       -1.7523695004
 H         -7.0303661668        0.8592944133       -2.3017372198
 H         -6.2417833861       -1.2290047954       -1.1801273654
 H         -3.3857848022       -2.6948160478       -1.1928447170
 H         -2.3666983460       -1.4903807247       -2.9189286846
 H         -0.6793969002        0.1891256785       -3.5698541882
 H          0.6228539824        1.3744432310       -1.8468239123
 H          0.1031445906        0.7211994932        1.8357232608
 C          0.2971141158        2.5791277962        0.8044686399
 C         -0.9205292686        3.1940366622        1.4227559454
 C          0.4209138641        3.3767547585        2.0660065097
 H          0.8924769527        4.3467044389        2.0183330745
 H          0.6261684008        2.8370862152        2.9797501225
 H         -1.3734847204        4.0425894488        0.9338694533
 H         -1.6239234884        2.5355286311        1.9107816301
 H          0.6849185445        3.0261253668       -0.1005762804
