  62
        -98.94285499
 C         -1.5768505506       -1.4588835117        0.1177252675
 C         -2.7118469147       -0.9727992360        0.8132270419
 C         -3.3580307279        0.2160281911        0.2452230559
 C         -2.8399783131        0.7942725331       -0.8534809221
 C         -3.3871373056        2.0071855573       -1.5568804563
 C         -2.9548050710        3.3426331935       -0.9355116875
 C         -3.6159535150        3.6863905415        0.3996946149
 H         -4.6982409653        3.5931824616        0.3054697719
 H         -3.3967529988        4.7359751218        0.6058729379
 C         -3.1250832053        2.8392879074        1.5822267003
 H         -2.9144427281        3.4892452281        2.4347773965
 H         -2.1853998546        2.3498368035        1.3142097366
 C         -4.1176817418        1.7772300399        2.0550294079
 H         -5.0117566855        2.2625341799        2.4527239429
 H         -3.6545669153        1.2100561552        2.8667936299
 C         -4.5434174195        0.7840173974        0.9660478527
 H         -5.2215152896        1.2660648143        0.2619889124
 H         -5.0691085111       -0.0447366740        1.4470343304
 H         -3.2013038666        4.1302913305       -1.6511976424
 H         -1.8702103193        3.3366650813       -0.8056588175
 H         -4.4760583814        1.9548456070       -1.5830004665
 H         -3.0136826696        1.9662172760       -2.5822144755
 O         -1.7348231272        0.3132128568       -1.4790650892
 C         -1.0665417107       -0.8126930316       -1.0111052254
 O         -0.0627526906       -1.1145080522       -1.6781518865
 O         -3.1600555973       -1.5035652119        1.8651113260
 C         -0.8504816570       -2.6594876645        0.6986165953
 C          0.6312519044       -2.3781527823        0.7377031166
 C          1.5963424399       -3.2097652253        0.1873980479
 C          2.9342793365       -2.8547852494        0.2280784863
 C          3.3382740583       -1.6668821735        0.8076332671
 C          2.3796973563       -0.8271643107        1.3607468555
 C          1.0449940004       -1.1942268706        1.3375860141
 H          0.3010789998       -0.5349693802        1.7696054991
 N          2.7728208553        0.4017182612        1.9311461102
 S          3.6152608317        1.4547624549        0.9341244105
 O          4.9621361829        0.9678453520        0.7729251832
 O          3.4798009970        2.7516282126        1.5601359278
 C          2.7636867950        1.4301306073       -0.6308245495
 C          1.6339121221        2.2101455056       -0.7758411625
 C          0.9439228342        2.1718090892       -1.9755114893
 C          1.3827398000        1.3458570733       -2.9977251138
 C          2.5156546136        0.5661535972       -2.8347532721
 C          3.2164252834        0.6069810545       -1.6410414254
 H          4.1047427724        0.0192803753       -1.4780596735
 H          2.8479558940       -0.0816960881       -3.6295075920
 H          0.8316127260        1.3046273916       -3.9237200249
 H          0.0589734822        2.7738224300       -2.1093168830
 H          1.3244008960        2.8408178272        0.0435826809
 H          2.0078632708        0.8961644119        2.3682020124
 H          4.3734779010       -1.3666644554        0.8296838628
 H          3.6728185798       -3.5098262867       -0.2085251714
 H          1.3021855540       -4.1256687488       -0.2975461656
 H         -1.2124401843       -2.7207259287        1.7392891288
 C         -1.2005451264       -3.9867984954        0.0431465733
 C         -2.4986430786       -4.1729887260       -0.6825856160
 C         -1.2095223054       -4.1625019992       -1.4449182757
 H         -0.8502265149       -5.0960501018       -1.8527556208
 H         -0.9731817470       -3.3005799527       -2.0483510730
 H         -3.0217883728       -5.1100773524       -0.5634596224
 H         -3.1523052234       -3.3172126205       -0.7698123795
 H         -0.8585212384       -4.8326603918        0.6317467241
