  62
        -98.94593550
 C         -2.1104707273       -1.4921235634        0.0086997379
 C         -1.8346996612       -0.3748625750       -0.8160362503
 C         -2.8998422595        0.6361364507       -0.8941524675
 C         -4.0512656583        0.4367306747       -0.2273849515
 C         -5.1962687071        1.4059907566       -0.1833836904
 C         -5.0681757760        2.3634876152        1.0097813506
 C         -3.6896517936        3.0121423225        1.1363978766
 H         -3.7276729823        3.6901027513        1.9917849771
 H         -2.9524878704        2.2406444256        1.3708203817
 C         -3.2347991704        3.7847772503       -0.1094922448
 H         -4.0949228662        4.0058444711       -0.7425971297
 H         -2.8126534307        4.7405256903        0.2076222259
 C         -2.1618324064        3.0749584808       -0.9373598642
 H         -1.3454210104        2.7596679920       -0.2830414787
 H         -1.7565159731        3.7948221020       -1.6534451964
 C         -2.6359429114        1.8534411008       -1.7349016541
 H         -3.5172131986        2.1152666139       -2.3240119945
 H         -1.8350953972        1.5704865313       -2.4242496801
 H         -5.8305189861        3.1387839044        0.9130468943
 H         -5.2687008753        1.8032248163        1.9260611684
 H         -5.2254284155        1.9696659094       -1.1138000306
 H         -6.1233498274        0.8386923516       -0.0844124932
 O         -4.2882989350       -0.6640203187        0.5317297132
 C         -3.3210404872       -1.6429392160        0.6852053056
 O         -3.6523695633       -2.5831673902        1.4357117878
 H          1.4755373071       -2.4694352325       -0.8996643003
 C          1.4018516315       -1.9780411262        0.0573850948
 C          0.1959763174       -1.9604190755        0.7374089578
 C          0.1346493011       -1.3080911717        1.9667272856
 C          1.2516181156       -0.6944210657        2.4995177105
 C          2.4539242985       -0.7065429290        1.8130084743
 C          2.5223137829       -1.3457314245        0.5831033064
 N          3.7304116607       -1.3438911962       -0.1319215998
 S          4.6291337918        0.0659097087       -0.1666060529
 O          5.3718849722        0.0062727336       -1.4065425493
 O          5.4266791880        0.1581902517        1.0321113384
 C          3.4541341998        1.4091009618       -0.2077402839
 C          2.4592855082        1.3939653541       -1.1645676244
 C          1.5489567935        2.4368466572       -1.2010128853
 C          1.6494286736        3.4745556902       -0.2873960407
 C          2.6571607628        3.4782632047        0.6646072583
 C          3.5684680909        2.4356123912        0.7080251230
 H          4.3628997042        2.3946431067        1.4357220764
 H          2.7327001445        4.2865483365        1.3741794388
 H          0.9362573943        4.2834510726       -0.3179868367
 H          0.7575156650        2.4194625596       -1.9323768364
 H          2.3881371526        0.5759409746       -1.8625957493
 H          3.6673967043       -1.7612903497       -1.0487855881
 H          3.3360501896       -0.2342017519        2.2138970828
 H          1.1881428687       -0.1973666283        3.4556387277
 H         -0.8083825122       -1.2871432871        2.4965397256
 C         -1.0649479694       -2.5798226093        0.1869532085
 H         -1.4670742636       -3.2686684764        0.9430245637
 C         -0.8694000673       -3.3401577671       -1.1077043483
 C         -0.3117077565       -4.7308160183       -1.0828596308
 C         -1.7587304200       -4.5085714154       -1.4033212639
 H         -2.0918757620       -4.6589164068       -2.4193574911
 H         -2.4970530235       -4.7716289139       -0.6598444693
 H         -0.0644651462       -5.1521473273       -0.1201956411
 H          0.3472442772       -5.0394860623       -1.8805314651
 H         -0.6055003138       -2.6963313750       -1.9388004226
 O         -0.7619819984       -0.2268655104       -1.4560406195
