  62
        -98.94547001
 C          1.6831897436        0.8963464241        0.1213098944
 C          2.7088415451        0.5975658298        1.0489564302
 C          3.3922643996       -0.6869564274        0.8565299109
 C          2.9971499486       -1.5122358871       -0.1300381573
 C          3.5767331263       -2.8667696128       -0.4359015569
 C          4.8375357019       -2.8228044073       -1.3102456422
 C          6.0990448768       -2.3175736509       -0.6089575791
 H          6.2475125353       -2.8753200096        0.3163349896
 H          6.9422936758       -2.5447292653       -1.2642458621
 C          6.0981676096       -0.8116923248       -0.3106497336
 H          5.3336806935       -0.3203941303       -0.9169084519
 H          7.0601065798       -0.3826021327       -0.5998489830
 C          5.8679492339       -0.4563733553        1.1582858621
 H          6.6994911159       -0.8287495964        1.7607603116
 H          5.8487608301        0.6327877885        1.2486334537
 C          4.5589384722       -1.0033545233        1.7426175199
 H          4.6381020525       -2.0788762867        1.9011463441
 H          4.3851123948       -0.5195616151        2.7072271513
 H          5.0257582469       -3.8402187802       -1.6608136744
 H          4.6342645388       -2.2018827617       -2.1857000796
 H          2.8046511494       -3.4218903797       -0.9733323714
 H          3.7961886272       -3.3912615013        0.4947257531
 O          1.9769746837       -1.2071501354       -0.9752222404
 C          1.3134722877        0.0123701268       -0.8929557756
 O          0.4284804363        0.1705568697       -1.7517040469
 O          3.0317240655        1.3630396135        1.9976619579
 C          0.9558346708        2.2224370890        0.2325989724
 C         -0.5335501715        2.0259579019        0.3780162913
 C         -1.4637799471        2.8852958563       -0.1941561794
 C         -2.8205920212        2.6705647433       -0.0224630606
 C         -3.2817292276        1.5928954942        0.7103912120
 C         -2.3601304012        0.7236613615        1.2804462734
 C         -1.0018212214        0.9532597750        1.1254465284
 H         -0.2908360903        0.2741795739        1.5803342029
 N         -2.8153574975       -0.3970660721        1.9953583771
 S         -4.0738617672       -1.2804084490        1.3309808821
 O         -5.3302466936       -0.7046470369        1.7446368456
 O         -3.8440605984       -2.6440527387        1.7574680056
 C         -3.9107952778       -1.1362819485       -0.4407417837
 C         -2.6854589038       -1.3933834858       -1.0219834302
 C         -2.5490788055       -1.2532198763       -2.3930226667
 C         -3.6410255748       -0.8741040563       -3.1584677688
 C         -4.8697768423       -0.6342746067       -2.5629564964
 C         -5.0072079790       -0.7594410102       -1.1900666387
 H         -5.9383276316       -0.5651366913       -0.6827413428
 H         -5.7169688228       -0.3412646040       -3.1619212677
 H         -3.5290826478       -0.7619576073       -4.2253299383
 H         -1.5824810171       -1.4127908571       -2.8430867699
 H         -1.8441607597       -1.6825216090       -0.4118113399
 H         -2.0765695818       -1.0054164035        2.3162054441
 H         -4.3347124838        1.4093272628        0.8513652939
 H         -3.5297800741        3.3487250434       -0.4712789642
 H         -1.1252820022        3.7249803706       -0.7783406143
 H          1.3305586917        2.6833351760        1.1595823003
 C          1.3262640010        3.1148908982       -0.9355788059
 C          1.4313483924        4.5994241246       -0.7585243853
 C          2.6707369892        3.7766785479       -0.9367888932
 H          3.2116459455        3.8477599789       -1.8685473625
 H          3.3039566809        3.6105931704       -0.0772014628
 H          1.1226054818        5.2391055722       -1.5715855281
 H          1.2306784365        5.0029361875        0.2225108010
 H          0.9545501422        2.7347601800       -1.8806018249
