  62
        -98.94315565
 C         -2.2971969945       -0.6899690427        0.0852294280
 C         -3.2056940639       -0.2107361187        1.0654465706
 C         -4.0593321544        0.9157352480        0.6694666912
 C         -3.9246672629        1.4379562709       -0.5630128763
 C         -4.7526202976        2.5611053972       -1.1152368784
 C         -5.9963519480        2.0312164989       -1.8423319880
 C         -6.7898064954        1.0015459684       -1.0379574473
 H         -7.6598685714        0.7220218673       -1.6360579088
 H         -6.1829062589        0.1017182738       -0.9140377026
 C         -7.2533947101        1.4931225745        0.3404347002
 H         -8.2966247253        1.2033163028        0.4825542519
 H         -7.2119777648        2.5822487419        0.3786836913
 C         -6.4662936838        0.9148175799        1.5179408090
 H         -6.4252860411       -0.1739108654        1.4317161549
 H         -7.0089925005        1.1496716350        2.4374660739
 C         -5.0347346154        1.4395284816        1.6857460026
 H         -5.0410160723        2.5314033018        1.6860847444
 H         -4.6668732892        1.0976101253        2.6574777346
 H         -6.6395551690        2.8782395700       -2.0877449855
 H         -5.6781338403        1.5639735844       -2.7771648984
 H         -5.0479766666        3.2205911060       -0.3014834667
 H         -4.1407531353        3.1230625653       -1.8228742322
 O         -3.0364368145        0.9633875499       -1.4707812738
 C         -2.2046203318       -0.1086428920       -1.1793365114
 O         -1.4570503329       -0.4265182286       -2.1254039347
 H          0.5949243955       -1.2248651119       -1.2739627104
 C          0.8893686902       -1.0505415089       -0.2505042166
 C         -0.0080783116       -1.3154281436        0.7735093703
 C          0.3805231940       -1.0526037663        2.0831919838
 C          1.6339237309       -0.5355765345        2.3561402249
 C          2.5216403263       -0.2603965313        1.3309856132
 C          2.1421479373       -0.5152497238        0.0197238356
 N          3.0128697739       -0.2015653957       -1.0339723675
 S          4.6404767156       -0.5696785288       -0.9207471209
 O          5.1091892225       -0.6389813909       -2.2873602242
 O          4.8672149672       -1.7405494536       -0.1053158991
 C          5.3473954448        0.8656737193       -0.1386564512
 C          5.0812645659        2.1032394597       -0.6909640846
 C          5.6297802658        3.2310926092       -0.1018740826
 C          6.4333575274        3.1031380946        1.0214189359
 C          6.6944217066        1.8533870263        1.5616760658
 C          6.1478648087        0.7211814897        0.9774326707
 H          6.3189814135       -0.2699746887        1.3665440837
 H          7.3196132248        1.7562065536        2.4346950860
 H          6.8581314312        3.9831780642        1.4779881622
 H          5.4282556943        4.2045807511       -0.5192947927
 H          4.4531767909        2.1603749142       -1.5645506578
 H          2.6394454119       -0.4040898029       -1.9493093003
 H          3.4982102870        0.1460513035        1.5370148843
 H          1.9224931943       -0.3394505971        3.3775722455
 H         -0.3169910917       -1.2463628333        2.8854683812
 C         -1.3931644741       -1.8447306980        0.4873765944
 H         -1.8091606107       -2.2171714779        1.4330414238
 C         -1.3911730802       -2.9801607750       -0.5157357561
 C         -0.8505903455       -4.3140838791       -0.0986207626
 C         -2.3224796663       -4.1366681940       -0.3169245724
 H         -2.7741173854       -4.5890909349       -1.1871160033
 H         -2.9676164499       -4.1173929115        0.5492903530
 H         -0.4961909168       -4.4123529316        0.9164020161
 H         -0.2876305999       -4.8903297700       -0.8169728274
 H         -1.2144261206       -2.6616927051       -1.5349120023
 O         -3.2977941687       -0.7064031872        2.2198683409
