  62
        -98.92749433
 C         -1.9518884574       -0.8514176856        0.1791857581
 C         -2.1873478982        0.2326853019        1.0543635397
 C         -2.2910638225        1.5653492759        0.4410925050
 C         -2.1425054659        1.6883825002       -0.8889231394
 C         -2.1522248020        2.9464999549       -1.7215527107
 C         -3.2116848866        4.0081976591       -1.3954540669
 C         -4.5513127343        3.4539917025       -0.8887441934
 H         -5.3608665572        3.8921231771       -1.4751833123
 H         -4.5875939054        2.3734756665       -1.0369617802
 C         -4.8113731881        3.7757550248        0.5848112712
 H         -4.5209261399        4.8113924352        0.7735846203
 H         -5.8836140105        3.6955300753        0.7782927913
 C         -4.1021427745        2.8679298142        1.5890852438
 H         -4.2717941850        3.2735060330        2.5893444534
 H         -4.5484842067        1.8700696855        1.5680979454
 C         -2.5882710957        2.7017213573        1.3770496753
 H         -2.1395914414        2.4249919106        2.3354846052
 H         -2.1309093756        3.6288947914        1.0393679697
 H         -2.8138143680        4.7043977898       -0.6585385304
 H         -3.3764154908        4.5791744797       -2.3107359327
 H         -2.2816414669        2.6027658126       -2.7507122576
 H         -1.1563943813        3.3953179139       -1.6563855110
 O         -1.9193599000        0.6156667857       -1.6978785213
 C         -1.7956084477       -0.6691565426       -1.1943435578
 O         -1.5668617897       -1.5349992407       -2.0587310800
 O         -2.2955392719        0.0929767045        2.3047515915
 C         -1.7648915195       -2.2426888270        0.7748873328
 C         -0.4457022426       -2.7709366399        0.2642134656
 C         -0.2022658259       -3.9176746003       -0.4790352719
 C          1.0767305347       -4.2091824707       -0.9272865415
 C          2.1374203236       -3.3631054566       -0.6731394621
 C          1.9110675155       -2.2149020699        0.0781589000
 C          0.6427734083       -1.9509868285        0.5592529756
 H          0.4869334072       -1.0524683675        1.1410005279
 N          2.9538780524       -1.3161277286        0.3692797698
 S          2.5693322756        0.3301567140        0.3963421075
 O          2.1035588967        0.6720754309        1.7179916343
 O          1.6929197334        0.6653483225       -0.7036240412
 C          4.1877438351        1.0355553874        0.1385320288
 C          4.5674808444        1.4105155243       -1.1363093741
 C          5.8404193664        1.9227094563       -1.3335004438
 C          6.7084324564        2.0465823496       -0.2590375157
 C          6.3128906120        1.6664158705        1.0149508876
 C          5.0412355201        1.1547834158        1.2192339936
 H          4.6847305232        0.8540554460        2.1905327676
 H          6.9892011131        1.7668102694        1.8483467653
 H          7.6984813433        2.4446232964       -0.4154417145
 H          6.1488169829        2.2217255526       -2.3223123162
 H          3.8548216581        1.3021973165       -1.9385350934
 H          3.7822606172       -1.4911130294       -0.1838468167
 H          3.1240690550       -3.5794469599       -1.0535515762
 H          1.2390421560       -5.1037170716       -1.5096434932
 H         -0.9983864980       -4.5864337624       -0.7498961669
 H         -1.6317793667       -2.0611612307        1.8558413047
 C         -3.0644952471       -3.0211628861        0.6481556526
 C         -3.5061549022       -3.7831530910       -0.5617578504
 C         -3.1972282444       -4.5128503563        0.7131933024
 H         -4.0280725392       -4.9146366436        1.2744229510
 H         -2.3026266410       -5.1092316421        0.7808057257
 H         -4.5414810787       -3.6930248290       -0.8581998690
 H         -2.8288661089       -3.8359817436       -1.3983469247
 H         -3.8486798493       -2.4622077469        1.1554999486
