  62
        -98.93655760
 C          2.5459637756        0.0428336757        0.1323943353
 C          2.3948747626       -1.1063225266        0.9434641463
 C          1.8336690347       -2.3158405017        0.3137114757
 C          1.5096321504       -2.2705384971       -0.9914602419
 C          0.8565530186       -3.3332967804       -1.8347769039
 C         -0.6509056717       -3.4300893538       -1.5621157083
 C         -1.0278114169       -3.5100204720       -0.0852092652
 H         -0.7203540845       -2.5868549709        0.4118342205
 H         -2.1196953613       -3.5444969021       -0.0261281039
 C         -0.4797884450       -4.7200561432        0.6698694446
 H         -0.9399117595       -4.7093610480        1.6611252869
 H         -0.8021668890       -5.6321128981        0.1626390801
 C          1.0395610893       -4.7757968236        0.8585784583
 H          1.5380819288       -5.1546658275       -0.0299511929
 H          1.2403615122       -5.4954943664        1.6574790036
 C          1.6753464520       -3.4580595580        1.2881474019
 H          2.6833978227       -3.6611026607        1.6699528650
 H          1.1203937363       -3.0515378843        2.1420783380
 H         -1.0426400768       -4.3010761831       -2.0914714255
 H         -1.1246542423       -2.5330359708       -1.9700404641
 H          1.0022456906       -3.0383715809       -2.8764996797
 H          1.3397265368       -4.2941780715       -1.6867857034
 O          1.7097483688       -1.1546501803       -1.7469738360
 C          2.1561396589        0.0366389081       -1.2083259031
 O          2.1804120339        0.9807156126       -2.0210235719
 O          2.6951560384       -1.1202313396        2.1701613351
 C          2.9202429784        1.3470798904        0.8187184348
 C          1.8357055940        2.3489090528        0.5068586611
 C          2.0496729609        3.6130229295       -0.0229932885
 C          0.9725000706        4.4213465200       -0.3479879480
 C         -0.3271724680        3.9813750033       -0.1787046508
 C         -0.5500507960        2.7200486828        0.3638954922
 C          0.5278244597        1.9364500167        0.7315902436
 H          0.3453372358        0.9583018635        1.1538473783
 N         -1.8513310977        2.2169202807        0.5544961289
 S         -2.0700085976        0.5578341682        0.2889229260
 O         -1.7019679439       -0.1535516114        1.4883141033
 O         -1.4168330579        0.1506830697       -0.9331926846
 C         -3.8418037944        0.5034747850        0.0910508677
 C         -4.3821819478        0.4980600903       -1.1807643260
 C         -5.7610075020        0.4925084139       -1.3237772103
 C         -6.5712695287        0.4966683729       -0.1983450374
 C         -6.0142901988        0.5011947561        1.0720006647
 C         -4.6365820180        0.5048034192        1.2217158219
 H         -4.1567317503        0.4990297721        2.1864251219
 H         -6.6471862171        0.5013495689        1.9446388520
 H         -7.6437288311        0.4934686503       -0.3122593104
 H         -6.1959663950        0.4852246509       -2.3101788143
 H         -3.7114648002        0.4882155663       -2.0252876250
 H         -2.5506440900        2.7571316370        0.0624261960
 H         -1.1619285446        4.6010662437       -0.4694338466
 H          1.1497761912        5.4002658856       -0.7672796417
 H          3.0546257651        3.9535979864       -0.2116788866
 H          2.8598239860        1.1080041933        1.8948551385
 C          4.3312482014        1.8524949534        0.5712561564
 C          5.4253634355        0.9101354906        0.1692224534
 C          4.9343805337        1.9438890975       -0.7970891910
 H          5.5778739445        2.7841760023       -1.0140247688
 H          4.3284837559        1.6264404598       -1.6302872926
 H          6.4020129455        1.0361943206        0.6120049892
 H          5.1522662288       -0.1206916867       -0.0061112976
 H          4.6074967738        2.6323897958        1.2747552313
