  62
        -98.94491435
 C          1.9237340531       -0.1607752436       -0.0754229758
 C          2.9423236864       -0.9987190809       -0.5897174697
 C          4.2541182115       -0.3696059284       -0.7760246772
 C          4.4147039533        0.9350831610       -0.4887531400
 C          5.6841798107        1.7263616387       -0.6521029902
 C          6.6551726097        1.6002513256        0.5298715428
 C          7.3748795678        0.2554735159        0.6398725978
 H          7.8415927421        0.0154442618       -0.3159606385
 H          8.1759440359        0.3801097426        1.3712145992
 C          6.4777930460       -0.9083035980        1.0841904329
 H          6.9862340839       -1.4839797176        1.8609368066
 H          5.5612759923       -0.5128068282        1.5282096142
 C          6.1054363402       -1.8838846803       -0.0322885984
 H          5.4405865313       -2.6441670346        0.3854171573
 H          7.0049433914       -2.3858702584       -0.3954157772
 C          5.3925849877       -1.2347747244       -1.2258865514
 H          6.1009662331       -0.6556421679       -1.8177224170
 H          4.9789734745       -2.0292778241       -1.8517757224
 H          7.4086045715        2.3833161730        0.4173246385
 H          6.1072636029        1.7974443679        1.4542617105
 H          6.1876643495        1.4263824153       -1.5715750486
 H          5.3873225621        2.7734048847       -0.7433742033
 O          3.4024668365        1.7134520326       -0.0210890458
 C          2.1405380477        1.1856475711        0.2166944607
 O          1.3211394167        2.0055445001        0.6726119851
 O          2.7608833139       -2.2100220931       -0.8854447605
 C          0.5462847021       -0.7521576834        0.1681732152
 C         -0.4820601224        0.0045920298       -0.6339535288
 C         -0.3123990908        0.0918899125       -2.0145018508
 C         -1.2052911542        0.7999855597       -2.7933708991
 C         -2.2953447357        1.4273024144       -2.2144347947
 C         -2.4778473003        1.3427006118       -0.8402439427
 C         -1.5775936230        0.6278543722       -0.0594336040
 H         -1.7358995170        0.5970910535        1.0048879684
 N         -3.5650719828        1.9863362945       -0.2275030329
 S         -4.4822103643        1.2018377438        0.9276211145
 O         -5.6814862519        2.0022389769        1.0407899745
 O         -3.7230026249        1.0159851711        2.1370181069
 C         -4.8722727129       -0.3724502390        0.1861616205
 C         -5.9175144119       -0.4294514301       -0.7154910021
 C         -6.1917888245       -1.6299040028       -1.3497462922
 C         -5.4137317459       -2.7457793197       -1.0799448606
 C         -4.3684906520       -2.6718745175       -0.1724990726
 C         -4.0917093018       -1.4746504318        0.4690418394
 H         -3.2909010811       -1.3804287005        1.1834349877
 H         -3.7657130488       -3.5409088833        0.0381316805
 H         -5.6241112152       -3.6794940195       -1.5772558891
 H         -7.0073494183       -1.6920248256       -2.0520860172
 H         -6.5039362959        0.4583673210       -0.8884773585
 H         -4.1566967948        2.5000132213       -0.8640440357
 H         -2.9902962519        1.9895070609       -2.8195135800
 H         -1.0552532300        0.8646065194       -3.8605072051
 H          0.5417270030       -0.3952309172       -2.4649833671
 H          0.6008057669       -1.7792984854       -0.2220541523
 C          0.2510908462       -0.8120884678        1.6513544341
 C         -0.6623635489       -1.8685946381        2.1942313729
 C          0.8109918991       -1.9435016812        2.4583927686
 H          1.1706962752       -1.7369540956        3.4552838948
 H          1.3871526688       -2.6903863630        1.9318477742
 H         -1.3212044222       -1.6099858040        3.0103026976
 H         -1.0786844650       -2.5743481003        1.4910732744
 H          0.2340061783        0.1670180226        2.1178335389
