  62
        -98.94510038
 C         -2.4548510595       -1.1668812092       -0.0670363403
 C         -3.5694225695       -0.8886495701        0.7635434800
 C         -4.5382911497        0.0777924803        0.2369617509
 C         -4.3314069598        0.6404314114       -0.9675752886
 C         -5.2400248800        1.6258559619       -1.6514473877
 C         -5.0335203402        3.0806645315       -1.2078606464
 C         -5.5451737902        3.4125133202        0.1945111839
 H         -5.5374548403        4.5002175401        0.2885779249
 H         -6.5809586601        3.0849661799        0.2888813037
 C         -4.7071632100        2.8129865793        1.3324242434
 H         -3.7312834800        2.5095217298        0.9455050031
 H         -4.5252261001        3.5767341486        2.0918690140
 C         -5.3547885898        1.6199505986        2.0353553823
 H         -6.2666570299        1.9439126580        2.5417143027
 H         -4.6602365098        1.2515667580        2.7944520520
 C         -5.7025309597        0.4513172093        1.1042178613
 H         -5.9489475596       -0.4164864812        1.7207769506
 H         -6.5678381898        0.7028234598        0.4915220716
 H         -3.9689685502        3.3181106117       -1.2735663562
 H         -5.5599897303        3.7165476821       -1.9234319558
 H         -5.0231951600        1.5581389228       -2.7197293977
 H         -6.2794185300        1.3389911816       -1.4888962279
 O         -3.2473880998        0.3490699422       -1.7345044289
 C         -2.2769429597       -0.5448718680       -1.3026477597
 O         -1.3375897997       -0.6990096772       -2.1078153299
 O         -3.7481898094       -1.4285674111        1.8871486696
 C         -1.4148206994       -2.1539896795        0.4366735388
 C         -0.1302811195       -1.4065391695        0.6932399094
 C         -0.0196944995       -0.6275583205        1.8424162801
 C          1.1209490004        0.1131569994        2.0852929007
 C          2.1735620303        0.0995694604        1.1856431707
 C          2.0642715604       -0.6570641086        0.0275830100
 C          0.9238756305       -1.4162340985       -0.2052750706
 H          0.8494350805       -1.9913920377       -1.1143623511
 N          3.1217110904       -0.6801700476       -0.8954120701
 S          3.9214870001        0.7450586528       -1.2675833388
 O          3.0665743900        1.9015478626       -1.1310502778
 O          4.4981291201        0.5217016341       -2.5756327291
 C          5.2352347802        0.8071492120       -0.0649504188
 C          6.0272585503       -0.3135355081        0.0923651401
 C          7.0614654204       -0.2785980987        1.0137978201
 C          7.2883832602        0.8710637006        1.7557359011
 C          6.4871076701        1.9891710607        1.5837402421
 C          5.4497518500        1.9600927313        0.6643664222
 H          4.7977243499        2.8037418914        0.5016030929
 H          6.6648025300        2.8823698102        2.1609260529
 H          8.0939155103        0.8956449601        2.4725341611
 H          7.6862815205       -1.1464554988        1.1505131793
 H          5.8195800104       -1.1859079076       -0.5042868306
 H          2.9170010504       -1.2091944169       -1.7308078905
 H          3.0617949303        0.6833431104        1.3635145311
 H          1.1941820603        0.7089991187        2.9824580912
 H         -0.8480204195       -0.6041359112        2.5370357802
 H         -1.8001711993       -2.5112999904        1.4013600685
 C         -1.2638177292       -3.3373413786       -0.4956872622
 C         -0.5573941690       -4.5677030489       -0.0125481634
 C         -2.0409269591       -4.5884160090       -0.2217002733
 H         -2.4372668290       -5.1414011183       -1.0601319338
 H         -2.6810815690       -4.5974960598        0.6481233867
 H          0.0670003810       -5.1103698482       -0.7057792439
 H         -0.1879897290       -4.5614923798        1.0015912666
 H         -1.1381771893       -3.0520760077       -1.5335401520
