  62
        -98.94552329
 C         -0.9071262861       -1.7902318895       -0.0792300263
 C         -2.2120844714       -1.6658101655        0.4577442874
 C         -3.0462755054       -0.5991517192       -0.1046069405
 C         -2.5414709084        0.2090758800       -1.0536562947
 C         -3.2643984610        1.3463259493       -1.7239656619
 C         -3.2540660753        2.6535746765       -0.9193291695
 C         -4.1661236834        2.6730615037        0.3074884707
 H         -4.2438305809        3.7129718416        0.6314382539
 H         -5.1667394061        2.3428958608        0.0255225240
 C         -3.6538706404        1.8311776396        1.4847214320
 H         -2.5867244079        1.6290318499        1.3560648600
 H         -3.7505312102        2.4045669935        2.4101706146
 C         -4.3993954214        0.5123078119        1.6918136073
 H         -5.4312044443        0.7190301323        1.9865173444
 H         -3.9166981709       -0.0273142398        2.5107766116
 C         -4.4193518518       -0.4072170295        0.4645726027
 H         -5.0928712688       -0.0074657958       -0.2935469301
 H         -4.7873952396       -1.3870374910        0.7799259281
 H         -3.5660483691        3.4553672679       -1.5930411887
 H         -2.2311493366        2.8658158900       -0.5976942703
 H         -2.7561341694        1.5212011191       -2.6746664796
 H         -4.2952601035        1.0555517605       -1.9297786367
 O         -1.2835041462        0.0619765072       -1.5430950724
 C         -0.4248492702       -0.9137982034       -1.0535101176
 O          0.7080117651       -0.8902652990       -1.5685991621
 O         -2.6576551518       -2.4120830502        1.3718177855
 C          0.0121349216       -2.8278569792        0.5381322174
 C          1.3459934088       -2.2077438012        0.8793623082
 C          2.5631208594       -2.8592018576        0.7240155768
 C          3.7469560262       -2.2254906281        1.0617079373
 C          3.7489367171       -0.9225730901        1.5237797558
 C          2.5364554044       -0.2589330534        1.6731755680
 C          1.3527034489       -0.9160700105        1.3906039336
 H          0.4210773470       -0.3890617052        1.5340787334
 N          2.4773910035        1.0818368092        2.1000497663
 S          1.5308167353        2.1562783267        1.2389599626
 O          1.9810008907        3.4597777491        1.6889997708
 O          0.1306563405        1.8831423263        1.4503718069
 C          1.9371839619        1.9864805920       -0.4904774863
 C          3.2156242506        1.6472853161       -0.8829019253
 C          3.5026424724        1.5725970440       -2.2359658576
 C          2.5176667823        1.8476971376       -3.1702946074
 C          1.2428807923        2.2013744638       -2.7609509310
 C          0.9505248686        2.2715890963       -1.4097663657
 H         -0.0340840288        2.5243148077       -1.0502315010
 H          0.4714560438        2.4096393604       -3.4851798557
 H          2.7421600115        1.7807895614       -4.2232954582
 H          4.4935677646        1.2931817184       -2.5563355082
 H          3.9718250085        1.4352350519       -0.1454073381
 H          3.3724475122        1.4972433235        2.3162526476
 H          4.6750975942       -0.4226132712        1.7647821229
 H          4.6838051698       -2.7479523258        0.9427019652
 H          2.5907171045       -3.8605831115        0.3273971897
 H         -0.4840140793       -3.0959290665        1.4873258436
 C          0.1362912999       -4.1174676875       -0.2631892391
 C         -0.8248470014       -4.4498788517       -1.3641598292
 C          0.5981705383       -4.1146514046       -1.6888669454
 H          1.2485731992       -4.9105566897       -2.0207407387
 H          0.8083605919       -3.1554141855       -2.1350184111
 H         -1.1523917313       -5.4741723167       -1.4632123858
 H         -1.5879931623       -3.7228573469       -1.6022533999
 H          0.4558258186       -4.9538133632        0.3506669022
