  62
        -98.94302037
 C         -0.9297496033       -1.3081216741        0.2764596696
 C         -1.4242264437       -0.2033670210        1.0047404555
 C         -2.2781277166        0.7379012655        0.2613412903
 C         -2.4940884317        0.5285186822       -1.0488072462
 C         -3.3713262585        1.3427859659       -1.9586575983
 C         -4.7732340547        0.7174939008       -2.0549443194
 C         -5.7484929133        1.1536221183       -0.9615625891
 H         -6.0459146116        2.1890153455       -1.1407453107
 H         -6.6430134464        0.5344948844       -1.0606321148
 C         -5.2264437775        1.0368218783        0.4734575030
 H         -6.0908691352        1.0015462200        1.1393375844
 H         -4.6866181397        0.0960186893        0.5945490893
 C         -4.3323871390        2.2142958418        0.8895662584
 H         -4.4578766130        3.0219408947        0.1680653843
 H         -4.6749113744        2.6012210444        1.8512316650
 C         -2.8344284003        1.8957887130        1.0448206058
 H         -2.6202453993        1.6477677678        2.0890212099
 H         -2.2575434623        2.7947465722        0.8034445678
 H         -5.2085615233        0.9793295249       -3.0215186103
 H         -4.6551450981       -0.3690507338       -2.0338524444
 H         -3.4228728423        2.3743022912       -1.6216343517
 H         -2.9053597389        1.3183719783       -2.9463185260
 O         -1.9696213628       -0.5298589358       -1.7227716054
 C         -1.1743843023       -1.4676935300       -1.0875672841
 O         -0.7672567797       -2.3845076392       -1.8269043369
 O         -1.1682016224       -0.0114571692        2.2246143437
 C         -0.0328251887       -2.3137980957        0.9766153307
 C          1.3141725684       -2.3303517031        0.2970474523
 C          1.9850376627       -3.4896849333       -0.0675594867
 C          3.1940480932       -3.4132852777       -0.7381165752
 C          3.7467645620       -2.1906894088       -1.0711714740
 C          3.0905083613       -1.0236711484       -0.6942864270
 C          1.9026142494       -1.1046785244        0.0109294537
 H          1.3955689121       -0.1976636552        0.3040752823
 N          3.6218836338        0.2378121702       -0.9973812207
 S          2.6085521044        1.5404131330       -1.2731291957
 O          1.3709052329        1.1541427720       -1.9105675843
 O          3.4343612278        2.4767324464       -2.0085606409
 C          2.3074763778        2.1986811087        0.3524084499
 C          3.3939589397        2.4610852377        1.1636313366
 C          3.1728492520        2.9791778414        2.4291704273
 C          1.8772582909        3.2249518463        2.8588385473
 C          0.7977279523        2.9615624114        2.0303903487
 C          1.0132218502        2.4452863064        0.7626428748
 H          0.1999064394        2.2099058695        0.0921422025
 H         -0.2106226304        3.1386504941        2.3679126651
 H          1.7042965195        3.6222006577        3.8465226122
 H          4.0087161371        3.1860784397        3.0778387759
 H          4.3840392021        2.2564336091        0.7921778895
 H          4.4188053180        0.2327088578       -1.6168146101
 H          4.6731751869       -2.1351584189       -1.6221691910
 H          3.7034974288       -4.3210413981       -1.0241957174
 H          1.5561742977       -4.4522978385        0.1575130998
 H          0.0977080755       -1.9300636668        1.9995124475
 C         -0.6979315953       -3.6721005798        1.0431824536
 C         -0.3764961852       -4.6172934779        2.1611865662
 C         -1.7081499225       -3.9319640186        2.1189787308
 H         -2.5834448116       -4.5147266417        1.8739919240
 H         -1.8976192623       -3.1345825708        2.8225879963
 H         -0.3394919660       -5.6747876459        1.9473130743
 H          0.3374572471       -4.2903871780        2.9016998349
 H         -0.8953638037       -4.0853980741        0.0602285105
