  62
        -98.93798820
 C         -2.2662224878       -1.0508047001       -0.3709796336
 C         -3.6596075387       -1.1107554386       -0.1021423179
 C         -4.4569869099        0.0540433616       -0.5056367756
 C         -3.8397766047        1.1052643793       -1.0738535187
 C         -4.5163719489        2.3811863706       -1.4815233473
 C         -4.4899378080        3.4115409703       -0.3441025564
 C         -4.9549651018        2.8569249292        1.0024906917
 H         -4.2375500488        2.1077535958        1.3462138275
 H         -4.9256012703        3.6798285722        1.7200781755
 C         -6.3617929745        2.2426562456        0.9855560230
 H         -6.9068592114        2.5936008458        1.8643472543
 H         -6.9066833756        2.5893053408        0.1067495995
 C         -6.3872671614        0.7135740798        1.0274465699
 H         -7.4130139457        0.3964058484        1.2333627726
 H         -5.7638886243        0.3596089609        1.8525203305
 C         -5.9379384174        0.0023433168       -0.2552021862
 H         -6.1883335194       -1.0574687640       -0.1514923410
 H         -6.4867556354        0.4034182263       -1.1097140540
 H         -5.1196450618        4.2564627844       -0.6287815366
 H         -3.4656808208        3.7741787282       -0.2286663834
 H         -5.5442187327        2.1657200360       -1.7670566439
 H         -3.9869539302        2.7914504826       -2.3430990365
 O         -2.5036747761        1.1389852302       -1.2996024764
 C         -1.6776468814        0.0756793057       -0.9499736364
 O         -0.4790100038        0.2740064672       -1.2218864418
 O         -4.2128363825       -2.0983822442        0.4507344331
 C         -1.4292624058       -2.2401954378        0.0711963810
 C         -0.2870773634       -1.7610726513        0.9288839976
 C         -0.5182876371       -1.4517455495        2.2658064408
 C          0.4960103388       -0.9494902358        3.0595951444
 C          1.7574456079       -0.7340197983        2.5330711811
 C          1.9928099080       -1.0265366724        1.1967491694
 C          0.9794803127       -1.5546076524        0.4073412078
 H          1.1668927540       -1.7651821732       -0.6339748317
 N          3.2689588963       -0.8012128191        0.6465521807
 S          4.0492943543        0.6306406148        1.0903139865
 O          4.7370732608        0.3989422333        2.3377525966
 O          3.1254767032        1.7423158834        1.0832917065
 C          5.2340453448        0.7936519024       -0.2304118062
 C          4.8419215909        1.4248398525       -1.3960303776
 C          5.7491492250        1.5295066358       -2.4384844024
 C          7.0240638182        1.0008930050       -2.2995440968
 C          7.4018760127        0.3694150242       -1.1241071044
 C          6.5000581046        0.2620769685       -0.0770977213
 H          6.7490149086       -0.2132376227        0.8572361993
 H          8.3942481977       -0.0385457486       -1.0201612201
 H          7.7273491974        1.0843997932       -3.1129939358
 H          5.4576631866        2.0212162804       -3.3527277688
 H          3.8423280687        1.8265606096       -1.4582702238
 H          3.2573121384       -0.8996017982       -0.3599620094
 H          2.5539861158       -0.3225292375        3.1324013960
 H          0.3033436356       -0.7146213565        4.0958947902
 H         -1.5092717662       -1.5980065004        2.6736807800
 H         -2.1107730686       -2.8261363461        0.7086857197
 C         -0.9838672972       -3.1690539614       -1.0482955572
 C         -1.9234225812       -3.5122018749       -2.1646893792
 C         -0.6906441874       -2.7082758306       -2.4431888845
 H          0.1203272625       -3.1857230412       -2.9740332656
 H         -0.7978251965       -1.6585991473       -2.6656859557
 H         -1.9646476770       -4.5336701409       -2.5113125107
 H         -2.8769390191       -3.0044730118       -2.1813562546
 H         -0.3682584373       -3.9792526758       -0.6687649262
