  62
        -98.94050638
 C         -1.7517683241       -0.4002837554        0.3818790949
 C         -2.9149452216       -0.6231805274        1.1618910740
 C         -4.1756893124       -0.7710644397        0.4234542112
 C         -4.1652919544       -0.6689239478       -0.9179605679
 C         -5.3830590930       -0.7393502220       -1.7922015138
 C         -5.9826530925        0.6548127223       -2.0235170997
 C         -6.1751505607        1.4658257417       -0.7420257323
 H         -6.6309239960        2.4172812047       -1.0246703485
 H         -5.1962282761        1.6941115008       -0.3140966792
 C         -7.0440444180        0.7785452700        0.3206390834
 H         -7.6288742891       -0.0194705540       -0.1382349991
 H         -7.7504648646        1.5087271312        0.7212346047
 C         -6.2641059614        0.2148876755        1.5099003716
 H         -6.9805440159       -0.0484565622        2.2926284716
 H         -5.6063489651        0.9873456118        1.9166197160
 C         -5.4206913250       -1.0338080166        1.2231971543
 H         -6.0388358245       -1.7909341457        0.7363429354
 H         -5.0814960718       -1.4319242963        2.1840797383
 H         -6.9427743026        0.5379799185       -2.5294289260
 H         -5.3156546038        1.2132183805       -2.6843952319
 H         -6.1204498307       -1.3905934648       -1.3268436123
 H         -5.0919095067       -1.1636008531       -2.7545193498
 O         -3.0356167317       -0.4365215807       -1.6314967058
 C         -1.8026108628       -0.2836927894       -1.0082033804
 O         -0.8669150178       -0.0536379487       -1.7953547376
 O         -2.8989024216       -0.6889678404        2.4203255286
 C         -0.4370330610       -0.2245753242        1.1195142081
 C          0.3065602416        0.9797583760        0.5988713931
 C         -0.3489945518        2.2085742521        0.5580655531
 C          0.2880710620        3.3356850994        0.0798647621
 C          1.6060354335        3.2714177018       -0.3396820868
 C          2.2743806060        2.0565298422       -0.2877281421
 C          1.6220940490        0.9199021732        0.1703877642
 H          2.1545103107       -0.0155769018        0.1728071214
 N          3.6139118711        1.9437434643       -0.6954645398
 S          4.6777573586        1.1263964274        0.3080200997
 O          4.3073955368        1.2703733566        1.6971739247
 O          5.9862933588        1.6280850974       -0.0553648705
 C          4.5664043282       -0.5815854054       -0.1799566137
 C          4.6495715440       -0.8963511921       -1.5216914546
 C          4.6049709420       -2.2287941208       -1.8993109575
 C          4.4847336100       -3.2182102748       -0.9349964948
 C          4.4052687976       -2.8855730383        0.4088768855
 C          4.4470978254       -1.5544728235        0.7927604734
 H          4.3801189785       -1.2494076064        1.8250679651
 H          4.3085439320       -3.6559251352        1.1574488457
 H          4.4495476286       -4.2546894436       -1.2318996612
 H          4.6627422517       -2.4922787280       -2.9430882444
 H          4.7429146126       -0.1013699435       -2.2424423111
 H          4.0222319723        2.7996265954       -1.0428511237
 H          2.1089232005        4.1532772311       -0.7073851077
 H         -0.2399204701        4.2769544532        0.0419092323
 H         -1.3753545827        2.2639779998        0.8960909127
 H         -0.7365589628       -0.0061342446        2.1592256340
 C          0.4210034916       -1.4803099369        1.1739980442
 C         -0.1853678255       -2.8442306959        1.0403912732
 C          0.6985000578       -2.3086351169       -0.0437013189
 H          1.6851066498       -2.7328253867       -0.1599109982
 H          0.2461442683       -1.9935712866       -0.9704796182
 H          0.1919211936       -3.6346698280        1.6714680547
 H         -1.2475581915       -2.9048993609        0.8525280847
 H          1.2303644884       -1.3849691755        1.8923415048
