  62
        -98.93951182
 C         -1.5611903960       -0.0193393961        0.6893716992
 C         -2.8432718811        0.3688978072        1.1455562653
 C         -3.9152593343        0.4426804193        0.1380653089
 C         -3.6302714321        0.1648689882       -1.1478374318
 C         -4.4927412565        0.2068478493       -2.3923218803
 C         -6.0128179615        0.2991311113       -2.2876908791
 C         -6.6896677698       -0.9418954677       -1.7065627619
 H         -7.7531463764       -0.7252518322       -1.5846442238
 H         -6.5969865857       -1.7573982066       -2.4283055622
 C         -6.1270460883       -1.4377599041       -0.3768868862
 H         -5.0886457868       -1.7473184591       -0.5110612777
 H         -6.6930141965       -2.3266971111       -0.0854875194
 C         -6.2023276287       -0.4405919240        0.7775083185
 H         -5.9194841419       -0.9720913087        1.6900367996
 H         -7.2305954469       -0.0941960260        0.8977753749
 C         -5.2830818223        0.7868883394        0.6538504408
 H         -5.7393507702        1.5632004280        0.0441901351
 H         -5.1368104132        1.2013535671        1.6555884104
 H         -6.2986553159        1.1864528032       -1.7305817099
 H         -6.3866259331        0.4320418892       -3.3066453098
 H         -4.1322492126        1.0640812282       -2.9720848770
 H         -4.2271544866       -0.6852847014       -2.9685006081
 O         -2.3720673692       -0.1855443475       -1.5449027615
 C         -1.3142963218       -0.2918010672       -0.6551238250
 O         -0.2432928271       -0.6428795397       -1.1838226644
 O         -3.0853718760        0.6507581822        2.3500661150
 C         -0.4263835200       -0.0863828580        1.6984523763
 C          0.5044443844        1.0736245730        1.4413132534
 C          0.0689444774        2.3638997733        1.7359913353
 C          0.8816414671        3.4539761368        1.4940893892
 C          2.1383079279        3.2822798359        0.9377000112
 C          2.5788279218        2.0015165208        0.6322639246
 C          1.7679241053        0.9063094442        0.8990809051
 H          2.1271570790       -0.0798446943        0.6668118942
 N          3.8536665782        1.7816472198        0.0794102838
 S          3.9545566939        0.8774037846       -1.3377235225
 O          5.2515354927        1.2258021530       -1.8832536316
 O          2.8229580062        1.1264929510       -2.1991902552
 C          4.0051453254       -0.8159278047       -0.7938771958
 C          5.1087753736       -1.2244981189       -0.0704870741
 C          5.1727799863       -2.5367930131        0.3686973361
 C          4.1387552666       -3.4133401912        0.0748709812
 C          3.0408012496       -2.9870641865       -0.6565939014
 C          2.9676165972       -1.6746937990       -1.0990245540
 H          2.1125851736       -1.3005265419       -1.6416400308
 H          2.2325037836       -3.6652166868       -0.8814107465
 H          4.1859020711       -4.4348498622        0.4185894069
 H          6.0242098281       -2.8721368125        0.9386275312
 H          5.8917227357       -0.5117935226        0.1280068933
 H          4.4095096825        2.6210227681       -0.0115826290
 H          2.7716491235        4.1340663471        0.7387042036
 H          0.5338775199        4.4480058846        1.7326800492
 H         -0.9184752517        2.4973939105        2.1559949782
 H         -0.9009924452        0.0743863012        2.6768140411
 C          0.2613115489       -1.4345166413        1.6992969026
 C          1.1673717952       -1.8011553407        2.8355393362
 C         -0.1606342865       -2.4790152944        2.6866189053
 H         -0.1822144256       -3.5097749879        2.3666120472
 H         -0.9467231561       -2.2219170961        3.3815195872
 H          2.0620601005       -2.3641381984        2.6170506520
 H          1.2822321288       -1.0812314117        3.6315535561
 H          0.5341143546       -1.7729291550        0.7074634999
