  62
        -98.92968119
 C         -2.5163526332       -1.2788454125        0.2047462031
 C         -2.6057094477       -0.1215111387       -0.6027618956
 C         -3.9623613646        0.4184680308       -0.8438593596
 C         -5.0202516902       -0.2006352993       -0.2895796493
 C         -6.4747057881        0.1805811806       -0.3673858818
 C         -6.8229008545        1.3695830719        0.5423944484
 C         -5.8228498183        2.5221234876        0.5026582737
 H         -6.1222315699        3.2478486680        1.2635567384
 H         -4.8350262402        2.1507145437        0.7823090377
 C         -5.7297231027        3.2570334319       -0.8324142550
 H         -6.7125193165        3.6590567833       -1.0888300844
 H         -5.0521154046        4.1027172783       -0.6894613816
 C         -5.2172833579        2.4340700691       -2.0163540164
 H         -4.9724204488        3.1371020187       -2.8179371788
 H         -5.9938073356        1.7813087973       -2.4060864404
 C         -3.9476964079        1.6353924399       -1.7374518202
 H         -3.5351350189        1.2936248514       -2.6945631615
 H         -3.1862771363        2.3046741061       -1.3203758621
 H         -7.8143698982        1.7347063550        0.2693145883
 H         -6.8691661542        1.0049710781        1.5715578217
 H         -6.7535074325        0.3849500407       -1.3967174380
 H         -7.0445481259       -0.6898187930       -0.0344183764
 O         -4.8825998127       -1.3026840899        0.5031297029
 C         -3.6496338337       -1.8557575622        0.7817086751
 O         -3.6878614193       -2.8414734769        1.5457517924
 O         -1.6098803052        0.4552319221       -1.1117506489
 C         -1.1824173683       -1.9194328577        0.5471755061
 C         -0.1857398615       -0.8578896943        0.9451741761
 C         -0.4792308272       -0.0562935556        2.0454819942
 C          0.3978052949        0.9267854458        2.4600665066
 C          1.5917009877        1.1297128648        1.7905905048
 C          1.8975312569        0.3328132507        0.6967647752
 C          1.0153387799       -0.6591994733        0.2842422691
 H          1.2585006871       -1.2561762412       -0.5809647804
 N          3.1038374283        0.5438089715        0.0047343234
 S          4.4930721740        0.7702024760        0.9381384980
 O          4.5233814450       -0.1895349786        2.0194996376
 O          4.5661556744        2.1563875923        1.3273189748
 C          5.7707875008        0.4079077050       -0.2504045830
 C          6.2988130377       -0.8682755785       -0.3032284252
 C          7.2742526690       -1.1515394904       -1.2461933853
 C          7.7005230002       -0.1600784927       -2.1171984189
 C          7.1610599055        1.1160893754       -2.0517917859
 C          6.1859249721        1.4064443667       -1.1108577358
 H          5.7446214952        2.3849538142       -1.0175528271
 H          7.4973792674        1.8846132738       -2.7289142643
 H          8.4603679399       -0.3828799588       -2.8495445940
 H          7.6977072583       -2.1417204860       -1.2974957306
 H          5.9444034039       -1.6047627986        0.4001807466
 H          3.2540294173       -0.1429133177       -0.7215905455
 H          2.2889150255        1.8904675572        2.1035559624
 H          0.1522930715        1.5427403207        3.3127215573
 H         -1.4136936149       -0.2117206168        2.5690535862
 H         -1.3874208291       -2.5307441229        1.4421265820
 C         -0.6602664822       -2.8763393174       -0.5144304826
 C         -1.6028151701       -3.6107310801       -1.4195196138
 C         -0.6999219042       -2.5538196832       -1.9770770124
 H          0.1301596923       -2.8668328203       -2.5938978334
 H         -1.1283250085       -1.6076784607       -2.2668224686
 H         -1.3916309189       -4.6445848680       -1.6482135494
 H         -2.6567284748       -3.3912377508       -1.3284346974
 H          0.1984780369       -3.4394031427       -0.1606425661
