  62
        -98.94137688
 C         -1.5634154700       -0.6608120616        0.9362361399
 C         -2.8063854400       -1.1075132417        0.4257407500
 C         -3.8681200203       -0.0912303120        0.3451631809
 C         -3.6107183206        1.1728924479        0.7246080116
 C         -4.5825010810        2.3129618176        0.6341917325
 C         -4.4595793217        3.0446402984       -0.7097332871
 C         -4.4690281417        2.1147680591       -1.9231065776
 H         -4.4088467722        2.7428148797       -2.8146203373
 H         -3.5690707515        1.4955374194       -1.9053885583
 C         -5.7043991114        1.2087267888       -2.0193005478
 H         -6.5032854214        1.6027124281       -1.3899197574
 H         -6.0680614617        1.2201801193       -3.0490234277
 C         -5.4471004808       -0.2543619013       -1.6541534287
 H         -4.5867633609       -0.6268004207       -2.2159803792
 H         -6.3175247607       -0.8397533515       -1.9625456288
 C         -5.2093125203       -0.5380664621       -0.1656675990
 H         -6.0134018103       -0.0962710428        0.4263533315
 H         -5.2366302699       -1.6228234422       -0.0272106496
 H         -5.2813342719        3.7586351982       -0.7900243164
 H         -3.5211413319        3.6036911087       -0.7150030270
 H         -5.5940038209        1.9319501472        0.7608890126
 H         -4.3648689011        3.0147440372        1.4410218129
 O         -2.4009499306        1.5692379580        1.1954350715
 C         -1.3533469203        0.6718863683        1.3060743706
 O         -0.2992953204        1.1701243584        1.7478649406
 H          1.8867012197       -0.3485070900        0.2860954991
 C          1.5033892797       -1.0016029897       -0.4826436812
 C          0.3390217000       -1.7188668702       -0.2472835813
 C         -0.1645498700       -2.5325217198       -1.2565021816
 C          0.4986059097       -2.6304740889       -2.4660901318
 C          1.6755277294       -1.9366589384       -2.6870977818
 C          2.1802659194       -1.1114211088       -1.6885888514
 N          3.3537626891       -0.3742832683       -1.8914186813
 S          4.4103571494       -0.0688693987       -0.6321513414
 O          5.6647257991        0.2339314922       -1.2883994216
 O          4.4389739200       -1.1590278692        0.3149185479
 C          3.7861520891        1.4121209807        0.1307711696
 C          3.5310910295        1.4330805698        1.4868570097
 C          3.0577178993        2.6006854393        2.0628026805
 C          2.8520547987        3.7222586297        1.2756511112
 C          3.1184332583        3.6872851306       -0.0847688489
 C          3.5909397985        2.5223780611       -0.6662158497
 H          3.8120879382        2.4570208918       -1.7186552798
 H          2.9557613978        4.5631445209       -0.6923749783
 H          2.4782544585        4.6279596393        1.7266359819
 H          2.8424424496        2.6271158886        3.1187659606
 H          3.6980893200        0.5364880295        2.0635325091
 H          3.8334402589       -0.5557908976       -2.7605549516
 H          2.1980168892       -2.0265994476       -3.6274793320
 H          0.0998627797       -3.2633536986       -3.2446836121
 H         -1.0873974197       -3.0662946502       -1.0925135816
 C         -0.3544783396       -1.5716442313        1.0858330990
 H          0.3351699904       -1.0391513014        1.7549830991
 C         -0.6759698290       -2.9151275917        1.7087405083
 C          0.4543297514       -3.7488740517        2.2304625075
 C         -0.5004788585       -3.0977360625        3.1847142582
 H         -1.2058632582       -3.7206395831        3.7140768580
 H         -0.1508743286       -2.2507315628        3.7573230386
 H          0.4061086018       -4.8197051616        2.1047681569
 H          1.4524542213       -3.3429586713        2.1501263075
 H         -1.5067515990       -3.4261434917        1.2416731483
 O         -3.0445482097       -2.2869681816        0.0546122294
