  62
        -98.94551703
 C         -2.4991703847       -1.1905441423        0.0028922962
 C         -3.1688346773       -0.3776133395        0.9479880559
 C         -3.8185425839        0.8241076628        0.4140450022
 C         -3.7502396493        1.0899698290       -0.9033381585
 C         -4.3750219833        2.2674951150       -1.6014004326
 C         -3.5219823195        3.5427939805       -1.5555749343
 C         -3.4611937902        4.2357648860       -0.1936907741
 H         -4.4739935692        4.3931350801        0.1784652688
 H         -3.0151350337        5.2192118597       -0.3542357577
 C         -2.6341889125        3.4869958041        0.8610945229
 H         -1.9720325911        4.1902792422        1.3719886552
 H         -1.9924079998        2.7530083488        0.3659072201
 C         -3.4660154115        2.7827607768        1.9337398756
 H         -4.0095351348        3.5265099646        2.5203216970
 H         -2.7836221469        2.2571920184        2.6069993973
 C         -4.4713260445        1.7614952530        1.3849067699
 H         -5.3097119679        2.2743800839        0.9148192828
 H         -4.8464639361        1.1668873060        2.2213572885
 H         -3.9454884352        4.2446779010       -2.2776651741
 H         -2.5088274447        3.2985824663       -1.8852600909
 H         -4.5021412154        1.9769533863       -2.6463652336
 H         -5.3573404961        2.4694417832       -1.1736408703
 O         -3.0971336263        0.2826721977       -1.7804983954
 C         -2.4300429471       -0.8563100802       -1.3499872061
 O         -1.8369336848       -1.4735740355       -2.2540298182
 H         -0.3121268553       -0.3781339270        1.3134070597
 C          0.3019572073       -1.0803770888        0.7618537063
 C         -0.2839982529       -2.2364297287        0.2587341567
 C          0.5128463765       -3.1282334819       -0.4451802168
 C          1.8543808618       -2.8539193023       -0.6522807507
 C          2.4296027250       -1.6976406859       -0.1588835456
 C          1.6429352682       -0.8026588921        0.5553120349
 N          2.2205209827        0.3743714003        1.0707293923
 S          2.9940334935        1.3863432823       -0.0276171822
 O          2.9376228699        2.7037991904        0.5686747661
 O          2.4356291294        1.2569479044       -1.3541734059
 C          4.6794030677        0.8134166283       -0.0077082735
 C          5.3393909040        0.7797721966        1.2053018360
 C          6.6530714126        0.3404786160        1.2396970975
 C          7.2817722502       -0.0520082067        0.0671645819
 C          6.6063462986       -0.0090019167       -1.1428954906
 C          5.2912314016        0.4280937383       -1.1842154119
 H          4.7232093956        0.4722008235       -2.0999434640
 H          7.0965296413       -0.3142461241       -2.0533925168
 H          8.3042744191       -0.3938886732        0.0964123985
 H          7.1815010669        0.3053711085        2.1787017302
 H          4.8147899051        1.0969072646        2.0910400575
 H          1.5830195856        0.9119923915        1.6413439166
 H          3.4715606593       -1.4781546480       -0.3257675062
 H          2.4602729502       -3.5513561757       -1.2102466726
 H          0.0814147479       -4.0307004171       -0.8452914462
 C         -1.7631955839       -2.4269101937        0.4900738106
 H         -1.9377318786       -2.4602248553        1.5757873696
 C         -2.3295931991       -3.6831736533       -0.1340044245
 C         -2.1829833524       -4.9995870184        0.5673255984
 C         -3.5225937411       -4.3320304605        0.4992030674
 H         -4.2802306331       -4.7547715741       -0.1432743872
 H         -3.9163648074       -3.8784745438        1.3971370212
 H         -1.6673017798       -5.0049313448        1.5155546662
 H         -2.0223662106       -5.8855966299       -0.0278757638
 H         -2.2843953238       -3.6689150406       -1.2168891261
 O         -3.2151169299       -0.6400255688        2.1806046767
