  62
        -98.94518384
 C         -1.8105002890       -1.4102295353       -0.0483968942
 C         -2.9188796851       -0.7041306013        0.4814340233
 C         -3.3052916647        0.5216528741       -0.2229020847
 C         -2.6133014925        0.9122255955       -1.3083217955
 C         -2.8683954910        2.1499615413       -2.1235855312
 C         -2.1899238453        3.3988551162       -1.5435191307
 C         -2.8562620340        3.9720573550       -0.2920632282
 H         -2.4320642003        4.9650085313       -0.1297666262
 H         -3.9252532890        4.0968899732       -0.4710757010
 C         -2.6362636894        3.1335160861        0.9750304466
 H         -1.7885371373        2.4604324856        0.8181067911
 H         -2.3628179530        3.7928507245        1.8031345244
 C         -3.8558575217        2.3262601741        1.4232142862
 H         -3.5741728337        1.7424405028        2.3037474592
 H         -4.6569727454        3.0093908507        1.7153811090
 C         -4.4020079315        1.3558015163        0.3674409814
 H         -4.9250351825        1.9061691839       -0.4141646354
 H         -5.1094033813        0.6814079539        0.8568646903
 H         -1.1488186368        3.1542475874       -1.3150362220
 H         -2.1935161027        4.1681167190       -2.3195290771
 H         -3.9411179675        2.3218073588       -2.2169248770
 H         -2.4550812412        1.9621980257       -3.1168359274
 O         -1.5724752062        0.1980970984       -1.8021893537
 C         -1.0954791026       -0.9269006790       -1.1472288678
 O         -0.0622418911       -1.4003916409       -1.6560561747
 O         -3.5446643738       -1.0731271455        1.5134141671
 C         -1.2860797728       -2.5976396838        0.7456388271
 C          0.1773177050       -2.3529806007        1.0116044667
 C          1.2037743679       -3.2089822459        0.6379641438
 C          2.5266697177       -2.8367660798        0.8117134173
 C          2.8521076558       -1.5957252692        1.3287648265
 C          1.8300809809       -0.7417358167        1.7204138595
 C          0.5116792883       -1.1361201474        1.5952477280
 H         -0.2781083105       -0.4544279144        1.8895877234
 N          2.1564631605        0.5818446966        2.1438062374
 S          1.9598526488        1.6524064476        0.8461717611
 O          2.2930731365        2.9619766706        1.3683445852
 O          0.6410833950        1.5443831845        0.2596218950
 C          3.2192045335        1.0962082355       -0.2746190689
 C          2.9088163513        0.1703362519       -1.2506113492
 C          3.9273775311       -0.2956169207       -2.0687258215
 C          5.2233121884        0.1653997398       -1.8965931736
 C          5.5157153058        1.0958101704       -0.9100111713
 C          4.5054517837        1.5647251339       -0.0867186468
 H          4.6797054458        2.2870291831        0.6937749241
 H          6.5246481472        1.4521974617       -0.7784702224
 H          6.0099232669       -0.2041692310       -2.5355142256
 H          3.6956978858       -1.0222428964       -2.8308426894
 H          1.8926113906       -0.1789951415       -1.3588557520
 H          1.5635191712        0.9042562978        2.8983157573
 H          3.8769526954       -1.2754694533        1.4230742644
 H          3.3137955271       -3.5095012610        0.5084421139
 H          0.9677933886       -4.1536159363        0.1759307037
 H         -1.8265604105       -2.5387581364        1.7059606662
 C         -1.5929430607       -3.9658803039        0.1611672620
 C         -2.7858256769       -4.1708584430       -0.7230023269
 C         -1.4043485568       -4.2875845486       -1.2898301576
 H         -1.0425387630       -5.2715138687       -1.5503757403
 H         -1.0416448395       -3.5019858726       -1.9327746173
 H         -3.3718226652       -5.0688222169       -0.5965336184
 H         -3.3704828310       -3.2988698252       -0.9793394073
 H         -1.3780586255       -4.7624161201        0.8671839280
