  62
        -98.93466949
 C         -2.3199870843        0.1686100620       -0.1711821761
 C         -3.4464623425        0.4597489833       -0.9733004439
 C         -4.7196713468       -0.1666889004       -0.5772854775
 C         -4.7525759590       -0.9626318978        0.5081793329
 C         -5.8839963861       -1.7572874056        1.1269557117
 C         -7.3328303487       -1.5033949384        0.7186658885
 C         -7.8884672250       -0.1443732257        1.1433313794
 H         -8.8857072017       -0.0329704233        0.7121396067
 H         -7.9936533764       -0.1370797543        2.2311365202
 C         -7.0418194374        1.0653526117        0.7555910934
 H         -7.5480778546        1.9606210825        1.1267649029
 H         -6.0737540179        1.0127411385        1.2580306138
 C         -6.8129444038        1.2498120683       -0.7431156000
 H         -6.3346676305        2.2226466203       -0.8855844582
 H         -7.7729655775        1.2701326506       -1.2624935764
 C         -5.9165371021        0.1926073314       -1.4103144245
 H         -5.5253737199        0.6196520127       -2.3384286809
 H         -6.4828734626       -0.6972944897       -1.6740057480
 H         -7.9334656771       -2.2727836030        1.2113570985
 H         -7.4535798540       -1.6477857076       -0.3508152971
 H         -5.6481952846       -2.8090660952        0.9308722408
 H         -5.7872146983       -1.6180446644        2.2083626376
 O         -3.6328631933       -1.2208308360        1.2474422614
 C         -2.4004339853       -0.6701536785        0.9382139737
 O         -1.4816522615       -0.9994214390        1.7120632048
 O         -3.3911700748        1.2041958303       -1.9896221158
 C         -0.9842006418        0.7938045997       -0.5228471745
 C          0.0589514012       -0.2667493981       -0.7744004371
 C         -0.2578015201       -1.3499693944       -1.5911219211
 C          0.6786470093       -2.3275409158       -1.8638898049
 C          1.9593926317       -2.2371483256       -1.3470665205
 C          2.2872501826       -1.1595878270       -0.5341943910
 C          1.3386185217       -0.1862624993       -0.2497194707
 H          1.6237562258        0.6363503019        0.3843888895
 N          3.5723643330       -1.0417497509        0.0183724920
 S          4.2338938761        0.5035595434        0.1779829733
 O          3.8000560319        1.0729775180        1.4288832232
 O          3.9626435654        1.2827052607       -1.0087121789
 C          5.9706960396        0.1062786720        0.2678050795
 C          6.7372772122        0.1707704172       -0.8806221305
 C          8.0799459201       -0.1658521911       -0.8106284140
 C          8.6298909663       -0.5618304216        0.3993084487
 C          7.8482669237       -0.6208169314        1.5436818585
 C          6.5052054866       -0.2847923068        1.4809911141
 H          5.8615636339       -0.3068585526        2.3450160978
 H          8.2800718265       -0.9260731091        2.4831415514
 H          9.6750071063       -0.8231389151        0.4515220568
 H          8.6907920498       -0.1173423724       -1.6976441990
 H          6.2687433988        0.4932679761       -1.7965521053
 H          4.2332752643       -1.6978189806       -0.3745377349
 H          2.6942844939       -2.9968781365       -1.5659529512
 H          0.4138558906       -3.1631943799       -2.4943484498
 H         -1.2539789750       -1.4145237593       -2.0078722095
 H         -1.1518491280        1.3314122710       -1.4691371770
 C         -0.5787190315        1.7971768968        0.5363758334
 C          0.2914893051        2.9638605936        0.1798121708
 C         -1.1576040428        3.1784172395        0.4950470254
 H         -1.4183886069        3.6569482340        1.4270546881
 H         -1.8289431154        3.4090974485       -0.3192829104
 H          1.0338071328        3.2883928414        0.8942757438
 H          0.6113040007        3.0531184749       -0.8478237676
 H         -0.4417243812        1.3400011488        1.5108604629
