  62
        -98.93993324
 C         -1.4964199672       -1.4686172345       -0.0452056043
 C         -1.4792408794       -0.1005187211        0.3128523253
 C         -2.7770760441        0.4885192804        0.6915495050
 C         -3.8736381197       -0.2888566537        0.6892402966
 C         -5.2898167985        0.1301578325        0.9724576221
 C         -6.0167972949        0.4945925949       -0.3333726287
 C         -5.8536420963        1.9472221185       -0.7797282352
 H         -6.3053310862        2.0338729338       -1.7707702901
 H         -6.4188111741        2.5944436138       -0.1056128009
 C         -4.4109741135        2.4550105890       -0.8507714277
 H         -3.7749223393        1.6930884025       -1.3048555202
 H         -4.3965007517        3.3245889488       -1.5107690340
 C         -3.8456354261        2.8603404438        0.5185158561
 H         -4.6637701029        2.9210279663        1.2360718147
 H         -3.4198939218        3.8634346992        0.4507581541
 C         -2.7424010237        1.9442279190        1.0689023284
 H         -1.7659246703        2.2921466358        0.7175413275
 H         -2.7271359215        2.0204592075        2.1610424703
 H         -5.6528520671       -0.1749545620       -1.1170959448
 H         -7.0835501270        0.2982423298       -0.2072263654
 H         -5.7883287783       -0.7328331803        1.4187389287
 H         -5.3148750305        0.9538897929        1.6796520140
 O         -3.8390974858       -1.6101502408        0.3578285876
 C         -2.6616310794       -2.2318151632       -0.0170197484
 O         -2.7784396132       -3.4444037209       -0.2886923440
 H          2.3514399173       -1.1126852439       -0.7454306653
 C          2.0910537581       -1.3597464944        0.2690359666
 C          0.8565200503       -1.9113234331        0.5691189461
 C          0.5821971150       -2.2531641296        1.8913601890
 C          1.5114993584       -2.0247823304        2.8868525901
 C          2.7289426191       -1.4368428401        2.5893145336
 C          3.0170154318       -1.1047694754        1.2716697717
 N          4.2445493402       -0.5203852604        0.9347571612
 S          4.3778464224        0.5260373831       -0.3582521508
 O          4.3826767606       -0.2154420659       -1.5953973932
 O          5.5866410545        1.2734315809       -0.0772181893
 C          2.9755119936        1.6263550840       -0.3040081494
 C          2.7149385378        2.3127871007        0.8640578510
 C          1.6537694757        3.2012047429        0.8952577463
 C          0.8785523227        3.3912906997       -0.2369534889
 C          1.1530854618        2.6953292253       -1.4020783673
 C          2.2109301109        1.8028227817       -1.4377687812
 H          2.4543933677        1.2352394301       -2.3226137327
 H          0.5398462251        2.8362026609       -2.2783805834
 H          0.0499577131        4.0819913971       -0.2102615171
 H          1.4286616787        3.7370174399        1.8036541684
 H          3.3375291541        2.1488939880        1.7289389272
 H          4.8197723522       -0.2394116645        1.7143836978
 H          3.4494493003       -1.2406967197        3.3684906386
 H          1.2829395234       -2.2935808364        3.9073198622
 H         -0.3779281241       -2.6924718986        2.1274742983
 C         -0.2054465793       -2.1402215796       -0.4775488284
 H         -0.4183646016       -3.2176007597       -0.5328542150
 C          0.1927934527       -1.6465922039       -1.8530017740
 C          1.0454893095       -2.4975811234       -2.7437614193
 C         -0.4033032250       -2.2902281996       -3.0668534102
 H         -0.6609086507       -1.6654708773       -3.9089633483
 H         -1.0868525609       -3.1117233684       -2.9078151149
 H          1.7904583322       -2.0164689476       -3.3601639234
 H          1.3481329507       -3.4641180725       -2.3697575817
 H          0.3412934689       -0.5724946215       -1.8793566051
 O         -0.4352722511        0.5996426889        0.3107530889
