  62
        -98.93749088
 C          1.4508756492        0.8156194798       -0.4427984599
 C          2.7564749591        1.3575711701       -0.4555627998
 C          3.8561171693        0.3829431904       -0.4643089598
 C          3.5780431296       -0.9333347297       -0.4765798298
 C          4.5722739399       -2.0621717695       -0.5523363698
 C          5.5135348599       -2.2269570893        0.6563143002
 C          6.8656835997       -1.5190954490        0.5058765003
 H          7.6468723898       -2.1629547888        0.9152228403
 H          7.0835908297       -1.3998573589       -0.5561863097
 C          6.9912458394       -0.1638539190        1.2083797803
 H          7.8838937893        0.3323199712        0.8212665603
 H          7.1453041994       -0.3290754289        2.2772645903
 C          5.7968829492        0.7786912208        1.0587000703
 H          4.9793333693        0.4391716206        1.6992745502
 H          6.0906400090        1.7626475408        1.4299938903
 C          5.2579825792        0.9127968107       -0.3789811098
 H          5.2112150490        1.9662828107       -0.6623967197
 H          5.9082599993        0.3964664808       -1.0836406197
 H          5.0063565498       -1.8928410194        1.5610117102
 H          5.7008415201       -3.2962020592        0.7671710102
 H          5.1677405899       -1.9434641994       -1.4604379498
 H          3.9731514601       -2.9682318296       -0.6621712698
 O          2.3041300997       -1.4126211700       -0.4649750298
 C          1.2107835195       -0.5588877102       -0.4300853699
 O          0.1089497897       -1.1341232505       -0.3957855199
 O          2.9933983389        2.5961034702       -0.4624852798
 C          0.2570267390        1.7522569296       -0.4420506599
 C         -0.6295598609        1.4562726594        0.7411748501
 C         -0.0607485010        1.3945888695        2.0113946001
 C         -0.8329422609        1.1023733993        3.1180116701
 C         -2.1882189909        0.8547056190        2.9826734600
 C         -2.7678855208        0.9274225489        1.7226061400
 C         -1.9917391809        1.2392520491        0.6139568501
 H         -2.4724166009        1.3097027390       -0.3462403500
 N         -4.1402830608        0.7028718586        1.5560283400
 S         -4.7456953606        0.0494439785        0.1453734000
 O         -4.7685606608        1.0484534985       -0.8941593800
 O         -6.0384733205       -0.4765654118        0.5318604899
 C         -3.6653865403       -1.2934225213       -0.3103965600
 C         -3.1333906803       -1.3367989012       -1.5816747700
 C         -2.3213893300       -2.4016145710       -1.9334107600
 C         -2.0535024598       -3.3982142609       -1.0102151200
 C         -2.5957162899       -3.3409428710        0.2633929400
 C         -3.4119667201       -2.2810045412        0.6193868400
 H         -3.8521231602       -2.2137858313        1.6013394600
 H         -2.3780502397       -4.1157356010        0.9812060800
 H         -1.4104178696       -4.2199297408       -1.2831958600
 H         -1.8906903100       -2.4447054909       -2.9213435900
 H         -3.3598036804       -0.5357225212       -2.2680961100
 H         -4.6259649007        0.3648394285        2.3730273300
 H         -2.7915642108        0.6130995289        3.8442181900
 H         -0.3763620209        1.0564085194        4.0953497601
 H          1.0007178190        1.5740152097        2.1162861501
 H          0.6723215888        2.7640286697       -0.3233701299
 C         -0.4666168809        1.6725975494       -1.7697583599
 C         -1.2649566512        2.8389355993       -2.2678030799
 C          0.0317992189        2.4809234095       -2.9282793199
 H          0.0066611891        2.0407671995       -3.9138548399
 H          0.8865899888        3.1188076097       -2.7568973899
 H         -2.1884196411        2.6464054391       -2.7937569999
 H         -1.2924329814        3.7245532592       -1.6508936599
 H         -0.8360746007        0.6741726193       -1.9786806699
