  62
        -98.94878285
 C          1.8151283015        1.3369455555       -0.2476443642
 C          2.8878300137        0.6526700470        0.3681989311
 C          3.2646033014       -0.6261432887       -0.2413475523
 C          2.6035799934       -1.0684682636       -1.3270023952
 C          2.8595644454       -2.3617209556       -2.0511528806
 C          2.1359496968       -3.5584692424       -1.4179906664
 C          2.7490251369       -4.0666991336       -0.1124098114
 H          2.2999929099       -5.0402499446        0.0945630783
 H          3.8207582783       -4.2210012673       -0.2465335321
 C          2.5023965038       -3.1488229013        1.0931895952
 H          1.6734644680       -2.4730734455        0.8653016280
 H          2.1884729190       -3.7516501899        1.9496152571
 C          3.7206382976       -2.3353683669        1.5333116977
 H          4.4980605240       -3.0116760952        1.8968346966
 H          3.4197325622       -1.6919003264        2.3646139349
 C          4.3214254591       -1.4440075286        0.4383596539
 H          5.0263361420       -0.7535707738        0.9087470276
 H          4.8586618513       -2.0526016752       -0.2884086220
 H          2.1469962452       -4.3740877494       -2.1450172219
 H          1.0940216088       -3.2792378164       -1.2389113617
 H          3.9310152400       -2.5593813767       -2.0956654541
 H          2.4845990482       -2.2302648538       -3.0683583959
 O          1.6025128370       -0.3636887527       -1.9120342105
 C          1.1391389754        0.8137671526       -1.3509864732
 O          0.1501381715        1.3045469335       -1.9292869300
 O          3.4902520700        1.0836608888        1.3906933014
 C          1.2786137021        2.6061339015        0.3940699824
 C         -0.1567178263        2.3545245959        0.7845326956
 C         -1.2100690456        3.2072386777        0.4828836312
 C         -2.5155893476        2.8416008198        0.7670111283
 C         -2.7996564887        1.6100527935        1.3291963773
 C         -1.7494107460        0.7648576116        1.6597256440
 C         -0.4443325512        1.1530553697        1.4216962962
 H          0.3644756618        0.4776642717        1.6738358103
 N         -2.0418854761       -0.5493779030        2.1349015752
 S         -1.9200793819       -1.6470498728        0.8508274709
 O         -2.2556660240       -2.9406237242        1.4089561565
 O         -0.6264217672       -1.5730855825        0.2066047643
 C         -3.2112378834       -1.0831261373       -0.2292389358
 C         -4.5010961740       -1.5105322973        0.0207162416
 C         -5.5306586747       -1.0308013353       -0.7720284466
 C         -5.2530361695       -0.1308226315       -1.7905591383
 C         -3.9527076711        0.2881314431       -2.0261773471
 C         -2.9153282797       -0.1890337742       -1.2390422389
 H         -1.8942915616        0.1256985879       -1.3978634128
 H         -3.7319408375        0.9902689979       -2.8140534720
 H         -6.0544504947        0.2476298867       -2.4053865579
 H         -6.5429108106       -1.3551759041       -0.5920554854
 H         -4.6634643916       -2.2109888969        0.8233736716
 H         -1.4013918191       -0.8513346798        2.8583519129
 H         -3.8136733985        1.2920831780        1.5086278992
 H         -3.3233526377        3.5118789200        0.5175666312
 H         -1.0095265078        4.1511545287        0.0028219460
 H          1.8771958796        2.7539451958        1.3052678035
 C          1.4619121000        3.8005353411       -0.5164651346
 C          1.5950967503        5.1771325792        0.0616835804
 C          2.7877166189        4.4981460156       -0.5396146054
 H          3.1652144073        4.8552257180       -1.4858948886
 H          3.5553139902        4.1248724688        0.1225828715
 H          1.1561091276        6.0054785739       -0.4733740823
 H          1.5567757582        5.2742478482        1.1360829796
 H          0.9397349479        3.6862587177       -1.4596615942
