  62
        -98.93951469
 C         -2.6430544002       -1.2837793502        0.0169095401
 C         -2.7294550703       -0.2506534008       -0.9470806505
 C         -4.0582755404        0.3549342989       -1.1154550209
 C         -5.0907006304       -0.1038114408       -0.3846770806
 C         -6.4779626704        0.4681913890       -0.4072026010
 C         -6.6416038606        1.5620420496        0.6576667284
 C         -5.5263344307        2.6078423097        0.6474157278
 H         -5.7629840109        3.3428291701        1.4199670574
 H         -4.5860900207        2.1318300500        0.9359968981
 C         -5.3381782408        3.3228695690       -0.6978650826
 H         -5.2256428609        4.3931147491       -0.5121974432
 H         -6.2285491308        3.1926645685       -1.3141039725
 C         -4.1059981407        2.8761746187       -1.4870100123
 H         -3.9486778108        3.5870680783       -2.3025833327
 H         -3.2229643407        2.9166336292       -0.8436171223
 C         -4.1843686905        1.4758746084       -2.1081782815
 H         -5.1057089305        1.3798847179       -2.6860154315
 H         -3.3358951905        1.3679984581       -2.7901215414
 H         -7.6040847807        2.0531327694        0.5033643781
 H         -6.6559501906        1.0877306001        1.6417626387
 H         -7.1860138203       -0.3360468510       -0.2006546806
 H         -6.6824043705        0.8749407384       -1.3955092412
 O         -4.9737929302       -1.1194283203        0.5091660099
 C         -3.7482925002       -1.7203159300        0.7462604803
 O         -3.7719848201       -2.6152644895        1.6158943908
 O         -1.7507840704        0.1477235990       -1.6306627407
 C         -1.3031748101       -1.9388121199        0.3016969005
 C         -0.3188148703       -0.8854049095        0.7512482199
 C         -0.6822624104       -0.0399726590        1.7967962394
 C          0.1751068394        0.9487032214        2.2379437689
 C          1.4148281394        1.1193586812        1.6465331089
 C          1.7933219296        0.2746287007        0.6130501393
 C          0.9328927197       -0.7289416697        0.1796994699
 H          1.2416366398       -1.3775521101       -0.6251500998
 N          3.0404189696        0.4499943805       -0.0102753607
 S          4.3722261495        0.8267825912        0.9547879891
 O          4.4291560096       -0.0618302781        2.0943030396
 O          4.3373248693        2.2355363814        1.2586771183
 C          5.7086638796        0.4861462308       -0.1731137507
 C          6.3999929297       -0.7059500991       -0.0704907400
 C          7.4215841498       -0.9673890095       -0.9701461698
 C          7.7297814797       -0.0392870400       -1.9532798103
 C          7.0263254195        1.1528924999       -2.0436695610
 C          6.0054240395        1.4218193203       -1.1462029912
 H          5.4383577193        2.3376565102       -1.1725757417
 H          7.2703608694        1.8724181695       -2.8085785914
 H          8.5250444797       -0.2451894703       -2.6521943102
 H          7.9723613199       -1.8916663493       -0.9008032393
 H          6.1308186198       -1.3946059087        0.7142668804
 H          3.2522697797       -0.2930320298       -0.6617534103
 H          2.0912131193        1.8908945415        1.9773213484
 H         -0.1235436407        1.5979694618        3.0478383985
 H         -1.6531488504       -0.1683521189        2.2574341795
 H         -1.4725698001       -2.6266014395        1.1430432809
 C         -0.8446454500       -2.7401689105       -0.8983102990
 C          0.0667547602       -3.9157833103       -0.7164201384
 C         -1.3708634598       -4.1307637807       -1.0808257783
 H         -1.6067264097       -4.4657861913       -2.0797002581
 H         -2.0427025998       -4.5091186904       -0.3240193981
 H          0.8172090102       -4.1095761106       -1.4680935582
 H          0.3758334302       -4.1576961697        0.2893783518
 H         -0.7275655400       -2.1298597610       -1.7863841294
