  62
        -98.92971858
 C         -1.7673067466       -0.0124087535        0.3268183669
 C         -2.8210675541       -0.8680066576        0.7429480046
 C         -4.1618776940       -0.2603720083        0.8527398394
 C         -4.3037763398        1.0627876624        0.6786858696
 C         -5.5543338907        1.9002347001        0.7785530118
 C         -6.8388799957        1.3304680363        0.1619216280
 C         -6.6308141644        0.4742802006       -1.0958786288
 H         -7.2918291090        0.8372837235       -1.8851026754
 H         -5.6057788100        0.5808658564       -1.4548841762
 C         -6.9409314945       -1.0071923980       -0.8678737060
 H         -7.8557545560       -1.0861217710       -0.2765692077
 H         -7.1355403032       -1.4780168465       -1.8345615250
 C         -5.8342848063       -1.8115863729       -0.1866507494
 H         -4.9901011177       -1.9326227915       -0.8708498445
 H         -6.2242402621       -2.8109646744        0.0207406798
 C         -5.2905243923       -1.2140644590        1.1212007494
 H         -6.0828749790       -0.7472124414        1.7010537731
 H         -4.8603821863       -2.0283586879        1.7105886089
 H         -7.3711335531        0.7420772907        0.9079831052
 H         -7.4769108308        2.1825912684       -0.0787793486
 H         -5.7318323052        2.1215365400        1.8351815436
 H         -5.3015796457        2.8455953932        0.2921415575
 O         -3.2378911102        1.8705602170        0.4173144211
 C         -1.9553577752        1.3685997379        0.2491102623
 O         -1.1009889136        2.2547660506        0.0545538130
 H          1.9053734153        0.6754414473        0.9080694040
 C          1.6859977318        0.8341470046       -0.1370802133
 C          0.5206360969        0.3247011237       -0.6866670764
 C          0.2492654240        0.5725418060       -2.0288178784
 C          1.1113516761        1.3388929802       -2.7870693459
 C          2.2744531938        1.8477322843       -2.2350543805
 C          2.5585153883        1.5997598047       -0.8983881732
 N          3.7252178019        2.1054880393       -0.3104932641
 S          4.5009709223        1.2809412795        0.9097547480
 O          3.7940900007        1.4300521876        2.1576770753
 O          5.8530531127        1.7969528965        0.8873324551
 C          4.5045386617       -0.4340154970        0.4137723895
 C          5.0392523059       -0.7627983817       -0.8164652042
 C          5.0558091284       -2.0919229871       -1.2071948308
 C          4.5431342256       -3.0665562565       -0.3646859276
 C          4.0138134112       -2.7218057519        0.8692374352
 C          3.9923602973       -1.3931688951        1.2635254222
 H          3.5848306153       -1.0815091301        2.2123701587
 H          3.6113856556       -3.4803946595        1.5212377351
 H          4.5517521221       -4.1003940997       -0.6708384839
 H          5.4662103226       -2.3633776556       -2.1662919129
 H          5.4393440040        0.0161471333       -1.4445244450
 H          4.3637815931        2.5708713056       -0.9370435185
 H          2.9479513414        2.4470184282       -2.8285022931
 H          0.8824990364        1.5393946250       -3.8229241322
 H         -0.6578295203        0.1796145438       -2.4639734596
 C         -0.3683716745       -0.5818939604        0.1253751550
 H          0.0928160439       -0.7105415483        1.1181532711
 C         -0.3997173311       -1.9409327107       -0.5698986069
 C          0.8919214502       -2.5791389879       -0.9929031290
 C          0.0937955144       -3.1700600902        0.1256230658
 H         -0.4389996584       -4.0940367977       -0.0361478676
 H          0.4601771295       -3.0539121188        1.1341880632
 H          1.8076166209       -2.0614399545       -0.7500460540
 H          0.9186022487       -3.0990995793       -1.9378934692
 H         -1.2464636597       -2.0649279339       -1.2344016430
 O         -2.6667946332       -2.0824154561        1.0247682272
