  62
        -98.94515520
 C         -1.5336954924       -0.8066720189        0.0576615048
 C         -2.8092233924       -1.4152187040        0.1140383899
 C         -3.9082409552       -0.5503327704        0.5584843135
 C         -3.6554848750        0.7251455001        0.9051241165
 C         -4.6665118015        1.7227487565        1.4023588123
 C         -5.4395933284        2.4380060139        0.2859397761
 C         -6.4776215543        1.5804476103       -0.4389818616
 H         -7.1344696545        1.1099145144        0.2933513866
 H         -7.0905216853        2.2568879057       -1.0381433993
 C         -5.8805379706        0.5084782267       -1.3614962844
 H         -6.4027804095        0.5212910810       -2.3208672051
 H         -4.8332733982        0.7438215694       -1.5643443815
 C         -5.9692936227       -0.9172724475       -0.8171221105
 H         -5.4850969421       -1.5876191090       -1.5319580464
 H         -7.0172946058       -1.2141593510       -0.7347890823
 C         -5.2967769879       -1.1147835948        0.5477883512
 H         -5.9000978570       -0.6606475737        1.3336627310
 H         -5.2209884765       -2.1879022722        0.7404514041
 H         -5.9552788217        3.2876511043        0.7394028961
 H         -4.7230276548        2.8318454193       -0.4383306465
 H         -5.3693407704        1.2293436480        2.0742807864
 H         -4.1100823350        2.4715279777        1.9700401247
 O         -2.4084668426        1.2647878274        0.8617047071
 C         -1.3194124187        0.5230215885        0.4229221040
 O         -0.2432107204        1.1462243479        0.4120654693
 H          2.3580625331       -1.1480993743       -0.7312818482
 C          2.0690220997       -1.3230397517        0.2904251666
 C          0.7507971464       -1.5996846535        0.6145645013
 C          0.4342528709       -1.8684793497        1.9442427398
 C          1.4078524401       -1.8344637126        2.9227176662
 C          2.7172889789       -1.5216185980        2.6004311979
 C          3.0468385396       -1.2686245524        1.2750929462
 N          4.3662911569       -0.9699066218        0.9136690832
 S          4.7080586234       -0.0045670946       -0.4030397938
 O          4.5398320999       -0.7543346282       -1.6231850892
 O          6.0502145765        0.4742716518       -0.1460041438
 C          3.5631699795        1.3616120430       -0.3575748825
 C          3.4774567588        2.1160712149        0.7945301734
 C          2.6056885957        3.1910789923        0.8266485083
 C          1.8411092844        3.4946754772       -0.2880128876
 C          1.9429870417        2.7313184169       -1.4388706377
 C          2.8105999276        1.6528610912       -1.4758307237
 H          2.9141726053        1.0282675507       -2.3495384057
 H          1.3414425489        2.9660446141       -2.3029973954
 H          1.1555303583        4.3266647408       -0.2577497210
 H          2.5180870098        3.7849146072        1.7223991358
 H          4.0877422077        1.8600363386        1.6456350002
 H          5.0021170263       -0.8135560939        1.6809788489
 H          3.4768507108       -1.4795331086        3.3658647634
 H          1.1453599817       -2.0424685769        3.9491574782
 H         -0.5911887586       -2.0978898942        2.2006447042
 C         -0.3458861926       -1.6205379533       -0.4200818249
 H         -0.7133487337       -2.6530094724       -0.5189056047
 C          0.1047744974       -1.1282474237       -1.7796069536
 C          0.7806767396       -2.0601906159       -2.7388673236
 C         -0.6186281806       -1.5946035172       -3.0057277922
 H         -0.7861832146       -0.8898984345       -3.8064195622
 H         -1.4265756631       -2.2983143248       -2.8674529598
 H          1.5830519421       -1.6787739465       -3.3530722077
 H          0.9233041100       -3.0831286272       -2.4243953664
 H          0.4323454344       -0.0942896745       -1.7540954565
 O         -3.0175260075       -2.6227647325       -0.1829422318
