  62
        -98.94495658
 C          1.8742813119        0.7388949531       -0.1600614051
 C          2.4287850485        0.0874523252        0.9669159560
 C          3.4934918847       -0.8854119517        0.6891903880
 C          3.8442307748       -1.1286988786       -0.5871371027
 C          4.9445639086       -2.0572332742       -1.0105660607
 C          6.2822458620       -1.3142069357       -1.1339563378
 C          6.6235580048       -0.4502292878        0.0801248548
 H          7.6008888367        0.0001108210       -0.1060442714
 H          5.9014783991        0.3664005698        0.1504564903
 C          6.6571849210       -1.2122975325        1.4122993235
 H          6.7438844123       -2.2831923508        1.2247288276
 H          7.5466870890       -0.9078264401        1.9678121792
 C          5.4543363144       -0.9529987558        2.3211332143
 H          5.3080540034        0.1239156229        2.4362857796
 H          5.6813308301       -1.3600492955        3.3100833036
 C          4.1278309292       -1.5736818577        1.8652036970
 H          4.2705051214       -2.6366967400        1.6594719468
 H          3.4150900519       -1.4763821524        2.6896154617
 H          7.0720776808       -2.0506629905       -1.2927925333
 H          6.2387433392       -0.6675416538       -2.0133610801
 H          5.0312346959       -2.8649140894       -0.2861486230
 H          4.6824732771       -2.4797771570       -1.9821129212
 O          3.2573787603       -0.5167224590       -1.6469673080
 C          2.2632078575        0.4346804468       -1.4649855819
 O          1.8161242404        0.9186084756       -2.5209811526
 H         -0.3304961355       -0.6246283414        0.2856858240
 C         -0.9282830546        0.0148383085       -0.3521594325
 C         -0.4998057796        1.3144040436       -0.5970393970
 C         -1.2860873292        2.1284620775       -1.4008990033
 C         -2.4497037483        1.6387255025       -1.9702742561
 C         -2.8592771107        0.3382872279       -1.7441008115
 C         -2.0906434316       -0.4783630603       -0.9232392773
 N         -2.5065402254       -1.7962942615       -0.6698145187
 S         -4.1201646019       -2.0530108728       -0.3092878799
 O         -4.1407180093       -3.2481172918        0.5049159535
 O         -4.8869532940       -2.1112489350       -1.5288551168
 C         -4.6186990205       -0.6322605235        0.6482666869
 C         -3.9530250838       -0.3786711988        1.8312958320
 C         -4.3038047996        0.7384352598        2.5714509954
 C         -5.3094495902        1.5788294604        2.1183668025
 C         -5.9720612027        1.3074277555        0.9316402044
 C         -5.6236561423        0.1925760369        0.1859313242
 H         -6.1099888803       -0.0542407886       -0.7436771446
 H         -6.7549345736        1.9613453133        0.5829901877
 H         -5.5771762013        2.4495951508        2.6957266628
 H         -3.7883365248        0.9504114305        3.4945265596
 H         -3.1778887664       -1.0528407943        2.1596534405
 H         -1.9023538329       -2.3051878750       -0.0419805116
 H         -3.7517085178       -0.0627736523       -2.1963515862
 H         -3.0439002469        2.2788815417       -2.6040615981
 H         -0.9832468468        3.1443562318       -1.5925590522
 C          0.7827904123        1.7720315459        0.0533837917
 H          0.6192057891        1.8001434407        1.1411911732
 C          1.2457339731        3.1388409742       -0.4042045547
 C          0.7023569846        4.3760995304        0.2438660194
 C          2.1142079579        3.9500897821        0.5086216535
 H          2.9193732502        4.5259468461        0.0774577775
 H          2.3500986007        3.5272520353        1.4744701778
 H          0.5391902754        5.2498906461       -0.3686031343
 H         -0.0207205724        4.2493119997        1.0350774816
 H          1.4701931388        3.1688822955       -1.4644197977
 O          2.0444446693        0.3032858656        2.1487662414
