  62
        -98.94034897
 C          1.4006997807        1.2914273817       -0.0497954818
 C          2.4096822311        0.9030417185        0.8657987685
 C          3.1984568782       -0.2993997039        0.5356078283
 C          2.9140440757       -0.9651774038       -0.5986658809
 C          3.5894727971       -2.1874390498       -1.1622291094
 C          4.9533841471       -1.8714655788       -1.7959241313
 C          5.8455358761       -0.9478246262       -0.9711426748
 H          6.7343015402       -0.7258963015       -1.5678224772
 H          5.3255733672       -0.0030796091       -0.8026219619
 C          6.3113673045       -1.5174847311        0.3667666633
 H          6.8504751595       -2.4509971569        0.1906756674
 H          7.0190634039       -0.8022476691        0.7937999499
 C          5.2149741477       -1.7749205462        1.4032412252
 H          4.6787835651       -2.6954572285        1.1890709396
 H          5.7086681294       -1.9217803278        2.3682376390
 C          4.2312984502       -0.6237722864        1.5873801061
 H          3.6646553925       -0.7926989399        2.5108240445
 H          4.7906995134        0.3026563256        1.7605148122
 H          4.7752646680       -1.3887334122       -2.7600963728
 H          5.4731214967       -2.8129011691       -1.9821420785
 H          3.6886003865       -2.9492419309       -0.3947779030
 H          2.9313976693       -2.5813600089       -1.9403183609
 O          1.9288567300       -0.5580157959       -1.4484783408
 C          1.1477371074        0.5575504914       -1.2074792390
 O          0.2916064957        0.7681773084       -2.0891565236
 H         -1.6201041056        1.9288450929       -1.2351408684
 C         -1.7925373187        1.7264442589       -0.1901182913
 C         -0.7988651534        2.0002257450        0.7378126437
 C         -1.0351103835        1.6964631801        2.0752327366
 C         -2.2353617416        1.1348599127        2.4716547717
 C         -3.2144484238        0.8387011962        1.5393835026
 C         -2.9794599307        1.1246960412        0.2011494550
 N         -3.9361810946        0.7503326219       -0.7631690736
 S         -4.4369881658       -0.8475661932       -0.6789405968
 O         -4.7260730672       -1.2404734196       -2.0405960498
 O         -5.5421496894       -0.9479080578        0.2431473612
 C         -3.0476909205       -1.7689816144       -0.0344397162
 C         -3.2111713486       -2.5202188734        1.1120870378
 C         -2.1284844678       -3.2209071079        1.6180530821
 C         -0.9033335980       -3.1573754811        0.9727296664
 C         -0.7568794815       -2.4029213708       -0.1806880517
 C         -1.8356824389       -1.7002097170       -0.6924257761
 H         -1.7278750041       -1.0987633425       -1.5817962557
 H          0.1953005844       -2.3447376295       -0.6841317014
 H         -0.0563948218       -3.6956685634        1.3682443936
 H         -2.2410684672       -3.8092550798        2.5143678552
 H         -4.1795337451       -2.5358027183        1.5852981778
 H         -3.6527306780        0.9774461173       -1.7061518906
 H         -4.1477307960        0.3791275161        1.8225421315
 H         -2.4065012791        0.9124071889        3.5136530711
 H         -0.2566668460        1.8888308264        2.7995771234
 C          0.5558101690        2.5047928550        0.3069907724
 H          1.0471966176        2.9544756001        1.1795364243
 C          0.4978624409        3.5333279402       -0.8024341656
 C         -0.0106130001        4.9084375774       -0.4917565290
 C          1.4449619360        4.6938767492       -0.7752845556
 H          1.8473748188        5.0517789486       -1.7111813384
 H          2.1401475315        4.7538137989        0.0492681777
 H         -0.6102223170        5.4167825047       -1.2312205359
 H         -0.3040973778        5.1114583256        0.5270535274
 H          0.2627553277        3.1155066818       -1.7731131314
 O          2.6528217371        1.5398814066        1.9251380130
