  62
        -98.94379265
 C         -1.6503433379       -1.4234676901        0.4076258910
 C         -1.7676848209       -0.1764548508        1.0779199463
 C         -3.0343521960        0.5411838413        0.9042888635
 C         -4.0202946320       -0.0172263016        0.1797513689
 C         -5.3897131907        0.5623824706       -0.0510115670
 C         -5.4591983414        1.5668674347       -1.2093173855
 C         -4.7993737701        2.9189552065       -0.9362931357
 H         -5.1852688154        3.3276156209       -0.0018883196
 H         -5.1072488431        3.5930182298       -1.7381282804
 C         -3.2657240484        2.8743299397       -0.8887218420
 H         -2.8596478615        3.6988609888       -1.4785980054
 H         -2.9140145927        1.9486849261       -1.3503258511
 C         -2.6680910640        2.9837796125        0.5141668003
 H         -2.8929138730        3.9671486242        0.9329808357
 H         -1.5836628509        2.8875133550        0.4264180536
 C         -3.1579547844        1.9120750133        1.4966943265
 H         -4.1888798556        2.1098526446        1.7898909702
 H         -2.5279672127        1.9463311513        2.3888779157
 H         -6.5157063769        1.7385492395       -1.4283786497
 H         -5.0063119731        1.1121637630       -2.0934204261
 H         -5.7449558582        1.0360549211        0.8647348768
 H         -6.0468910907       -0.2780863185       -0.2847933550
 O         -3.8817310270       -1.2245689044       -0.4251266665
 C         -2.6910590808       -1.9383358503       -0.3658729780
 O         -2.7174013277       -2.9903604772       -1.0349512323
 O         -0.8557669046        0.3084796722        1.7982185202
 C         -0.3277670957       -2.1508827872        0.5732527150
 C          0.6204113824       -1.8445800693       -0.5618682012
 C          0.2826023899       -2.1178789557       -1.8832035550
 C          1.1745679632       -1.8391311477       -2.9022732564
 C          2.4119599467       -1.2838339098       -2.6270119975
 C          2.7620833781       -1.0129496182       -1.3089439012
 C          1.8637484788       -1.2938056264       -0.2879868148
 H          2.1483572736       -1.0872235876        0.7316796189
 N          4.0228424072       -0.4865399619       -1.0065890670
 S          4.3115140819        0.4704476896        0.3277990758
 O          5.6114714701        1.0479390952        0.0633771792
 O          4.2010843980       -0.3112038565        1.5335367166
 C          3.0756470143        1.7546066064        0.2933037508
 C          2.1253040766        1.8340179781        1.2890358139
 C          1.1870144697        2.8526131846        1.2417535352
 C          1.2127720921        3.7667917710        0.2007233528
 C          2.1753102549        3.6744135842       -0.7941232093
 C          3.1172670891        2.6607318252       -0.7493438309
 H          3.8909164987        2.5701052027       -1.4944263437
 H          2.1929046019        4.3899433565       -1.6004989757
 H          0.4803265653        4.5583880747        0.1660865563
 H          0.4355777453        2.9085998675        2.0127657189
 H          2.1215673925        1.1055144112        2.0832584971
 H          4.5836644137       -0.2194590788       -1.8011221212
 H          3.1064754496       -1.0697625443       -3.4247406906
 H          0.9027035513       -2.0553075270       -3.9245177932
 H         -0.6824345520       -2.5495504195       -2.1005835055
 H          0.1151535904       -1.7368462864        1.4898621723
 C         -0.4634903622       -3.6507909303        0.7491678099
 C          0.6566305445       -4.4055174335        1.3974425124
 C         -0.6405057602       -4.2165728158        2.1244910028
 H         -1.2924067282       -5.0679118836        2.2505766744
 H         -0.6641131159       -3.5229005791        2.9525442854
 H          0.8983247054       -5.3888614473        1.0242533375
 H          1.5144215158       -3.8406786951        1.7320238712
 H         -0.9954178047       -4.1340372331       -0.0596742491
