  62
        -98.93978077
 C          1.9217630478        1.6379215482       -0.0439386640
 C          1.6508841150        0.4319680589       -0.7296828863
 C          2.7042662098       -0.6035963750       -0.6889984641
 C          3.8499663336       -0.3402156657       -0.0339571274
 C          5.0302646783       -1.2503155690        0.1774383100
 C          4.7668138973       -2.3111292962        1.2586518866
 C          3.4024628224       -2.9907066564        1.1727604759
 H          3.2986515572       -3.6351235704        2.0496661609
 H          2.6189335105       -2.2330609158        1.2329791036
 C          3.1833590333       -3.8517169048       -0.0686297729
 H          3.9519609323       -4.6270361899       -0.1063617899
 H          2.2180353543       -4.3492628842        0.0506297403
 C          3.1776255822       -3.1092661234       -1.4067348818
 H          4.1895998280       -2.8772276365       -1.7282086197
 H          2.7656304486       -3.7917122012       -2.1558950954
 C          2.3131567393       -1.8525447038       -1.4411162884
 H          2.1966450800       -1.5412587412       -2.4862223382
 H          1.3020482467       -2.0975997410       -1.0983191415
 H          4.8348768661       -1.8224905413        2.2338197444
 H          5.5559658928       -3.0630149124        1.2034042095
 H          5.3180044855       -1.7151163775       -0.7607135955
 H          5.8597738423       -0.6193655894        0.5043277251
 O          4.0717497486        0.8477602925        0.6000331072
 C          3.1248620568        1.8506513447        0.6282343762
 O          3.4619955000        2.8666050418        1.2699839749
 H         -1.6001714328        2.2044477631       -1.0841250081
 C         -1.5316526254        1.9396192799       -0.0412930566
 C         -0.3607670133        2.1771031299        0.6584740773
 C         -0.3002569571        1.8113635298        2.0008993222
 C         -1.3850442374        1.2247365690        2.6235586610
 C         -2.5500381031        0.9771269486        1.9175766545
 C         -2.6162419163        1.3297699838        0.5770094608
 N         -3.7880825548        1.0702376992       -0.1566951733
 S         -4.4724990444       -0.4533795150       -0.0558460373
 O         -5.3316678191       -0.5523373610       -1.2144244149
 O         -5.1199465305       -0.6000598714        1.2243010177
 C         -3.1247332957       -1.6129081889       -0.1916648103
 C         -2.5764587659       -1.8313225253       -1.4395599077
 C         -1.5252133971       -2.7233956952       -1.5636877299
 C         -1.0375261373       -3.3728456688       -0.4402697123
 C         -1.5916052570       -3.1357338467        0.8076561491
 C         -2.6472025253       -2.2476108869        0.9364815938
 H         -3.1138242842       -2.0468069208        1.8868096004
 H         -1.2053443029       -3.6396208518        1.6793110819
 H         -0.2219448660       -4.0725503220       -0.5396602935
 H         -1.0864738520       -2.9038093840       -2.5318091473
 H         -2.9873535983       -1.3161538176       -2.2927300920
 H         -3.7254441762        1.3583560253       -1.1225743487
 H         -3.4047311830        0.5154543915        2.3844228286
 H         -1.3242073947        0.9519245523        3.6663275760
 H          0.6176224080        1.9869960236        2.5460142724
 C          0.8784608966        2.7413867263        0.0092861733
 H          1.2907384979        3.5194080830        0.6661960847
 C          0.6481770782        3.3341692418       -1.3643599415
 C          0.0111862342        4.6843372769       -1.4940713786
 C          1.4687893099        4.5104536863       -1.7959441695
 H          1.7930175399        4.5631328654       -2.8245379382
 H          2.1899207268        4.8996741534       -1.0920120285
 H         -0.6648838620        4.8616138809       -2.3168475203
 H         -0.2607945459        5.1964907457       -0.5835245215
 H          0.4218074092        2.5868974982       -2.1157736124
 O          0.5781527722        0.2119338200       -1.3506027476
