  62
        -98.93948062
 C         -2.1288307146       -1.2847651777        0.2156075671
 C         -1.7979839048       -0.3025381812       -0.7458288748
 C         -2.5713549402        0.9568063068       -0.7010972542
 C         -3.5501532448        1.0862330871        0.2137139953
 C         -4.4393317775        2.2753052881        0.4644108357
 C         -3.7202753318        3.4035137302        1.2221809750
 C         -2.3067878673        3.7079152033        0.7318007169
 H         -1.7024529415        2.8006385333        0.7960684951
 H         -1.8655636706        4.4366917467        1.4173156429
 C         -2.2167385474        4.2804506626       -0.6809188797
 H         -1.1675355371        4.5279687386       -0.8632878453
 H         -2.7885165349        5.2099649929       -0.7256767022
 C         -2.6930923252        3.3607644621       -1.8074125861
 H         -2.3499657511        3.7984378776       -2.7492875502
 H         -3.7780992844        3.3323507077       -1.8578597291
 C         -2.1276382751        1.9451134425       -1.7530599669
 H         -1.0364626301        2.0039868861       -1.6675577555
 H         -2.3180793657        1.4556188808       -2.7155160118
 H         -3.6521794388        3.1142543953        2.2740273753
 H         -4.3309835271        4.3057017947        1.1608112368
 H         -4.8506921836        2.6382513869       -0.4727018172
 H         -5.2709050533        1.9210823615        1.0776536597
 O         -3.8435378528        0.1017071538        1.1119610092
 C         -3.1447370785       -1.0901224672        1.1486788388
 O         -3.5112833244       -1.8796460462        2.0437736198
 H         -0.1581117121       -0.6543462003        1.6475984988
 C          0.5657791092       -1.2969657558        1.1607291584
 C          0.1182795904       -2.3595929176        0.3870471424
 C          1.0649699757       -3.1734078867       -0.2236655108
 C          2.4172287607       -2.9238324511       -0.0637696326
 C          2.8571727167       -1.8533653657        0.6924987571
 C          1.9187886781       -1.0289221460        1.3002596780
 N          2.3507992712        0.0869711647        2.0363717232
 S          3.5684846065        1.0284615531        1.3749168523
 O          4.8494976023        0.4892617899        1.7616843298
 O          3.2950857230        2.3737242724        1.8328936270
 C          3.3916212852        0.9182845566       -0.3979950987
 C          4.4916601968        0.5854140615       -1.1626234852
 C          4.3490956301        0.4898462067       -2.5373634592
 C          3.1117225757        0.7161618409       -3.1196148828
 C          2.0163986777        1.0512707196       -2.3387841781
 C          2.1568309979        1.1608012827       -0.9654326248
 H          1.3148687131        1.4133285111       -0.3398979546
 H          1.0458770304        1.1985557592       -2.7843193717
 H          2.9955749895        0.6276746704       -4.1882309392
 H          5.1991586371        0.2304168886       -3.1476197479
 H          5.4301972717        0.4013947255       -0.6652093941
 H          1.5995557622        0.6624828666        2.3871347072
 H          3.9061944392       -1.6415682903        0.8235262044
 H          3.1394688279       -3.5676448582       -0.5414756205
 H          0.7424087146       -4.0047505628       -0.8284886598
 C         -1.3674394197       -2.5959830911        0.2526613516
 H         -1.7124051716       -3.1221425041        1.1555907132
 C         -1.7243050075       -3.4309292542       -0.9618398949
 C         -1.7956479183       -4.9246001259       -0.8666475253
 C         -3.0537945455       -4.1209705826       -0.9942519951
 H         -3.5976013974       -4.1527574591       -1.9264393059
 H         -3.6862938160       -4.0149598509       -0.1243899034
 H         -1.5820484077       -5.3776830368        0.0897812986
 H         -1.4780034356       -5.5116021805       -1.7153035358
 H         -1.3655358296       -2.9911448082       -1.8852759595
 O         -0.8882343071       -0.4522716961       -1.6006755315
