  62
        -98.94526524
 C         -1.6048108228       -0.1692351986       -0.6208859639
 C         -2.8794306601       -0.6287231068       -1.0358288449
 C         -3.9323790098       -0.6152884242       -0.0152154345
 C         -3.6402048824       -0.2227737846        1.2380177217
 C         -4.5954856805       -0.1898781783        2.4002199681
 C         -5.4588791164        1.0775363500        2.4654813587
 C         -6.5633247623        1.1679142938        1.4115835488
 H         -7.1555535767        0.2524680623        1.4286451438
 H         -7.2216884543        1.9870279215        1.7076270520
 C         -6.0581263970        1.4310520911       -0.0138664884
 H         -6.6632314630        2.2143460763       -0.4757632357
 H         -5.0313463345        1.8015270877        0.0266670725
 C         -6.1086734970        0.2150115676       -0.9387844923
 H         -7.1473805267       -0.0851151643       -1.0936108297
 H         -5.6933904262        0.5038454274       -1.9075376012
 C         -5.3211351271       -0.9989869709       -0.4289113428
 H         -5.2369416490       -1.7211155339       -1.2447486057
 H         -5.8491992007       -1.4690382498        0.4005246285
 H         -5.9253976429        1.1023244511        3.4530379230
 H         -4.8054780021        1.9492926898        2.3851189103
 H         -5.2396185910       -1.0692706572        2.3696870532
 H         -3.9848235080       -0.2381190012        3.3045730292
 O         -2.3962047515        0.1825399395        1.6061885642
 C         -1.3526377570        0.2345796818        0.6907721206
 O         -0.2830667195        0.6575339025        1.1678180322
 O         -3.1234480124       -1.0354644791       -2.2032742322
 C         -0.4739971673       -0.1750612737       -1.6367177584
 C          0.4944305303       -1.2699612091       -1.2611078708
 C          0.0827465533       -2.5967519206       -1.3688076014
 C          0.9293589378       -3.6280893573       -1.0131512277
 C          2.1977602168       -3.3583408596       -0.5263935500
 C          2.6157323665       -2.0397434092       -0.4086918913
 C          1.7698967304       -1.0065467483       -0.7902405482
 H          2.1127072839        0.0086670143       -0.7048387767
 N          3.9011583050       -1.7204537433        0.0668288606
 S          4.0158753481       -0.6518737624        1.3633702962
 O          5.3458838903       -0.8827837340        1.8911724713
 O          2.9291438181       -0.8401904962        2.2952727654
 C          3.9712873817        0.9660765833        0.6247716678
 C          2.9130337676        1.8160730281        0.8792884051
 C          2.9111537111        3.0693348342        0.2854507941
 C          3.9562210250        3.4464144251       -0.5440676384
 C          5.0117924511        2.5796677486       -0.7857971485
 C          5.0231382973        1.3267807851       -0.1948050452
 H          5.8253702230        0.6245369952       -0.3484890514
 H          5.8212990007        2.8762244779       -1.4330462806
 H          3.9448558792        4.4215201757       -1.0055176615
 H          2.0862154632        3.7395497098        0.4700208876
 H          2.0995001527        1.4759892504        1.5021963123
 H          4.4853241447       -2.5274250818        0.2387799974
 H          2.8572102954       -4.1632733707       -0.2377432136
 H          0.5991577526       -4.6519062888       -1.1066670371
 H         -0.9130548736       -2.8053348591       -1.7351168359
 H         -0.9451855949       -0.4552213756       -2.5897403378
 C          0.1674501781        1.1874425761       -1.7854128360
 C          1.0403848447        1.4701222239       -2.9704943998
 C         -0.3082686106        2.1140465839       -2.8619353062
 H         -0.3610982891        3.1701797634       -2.6448717684
 H         -1.0966332054        1.7627180212       -3.5115892249
 H          1.9178339069        2.0822200323       -2.8266144939
 H          1.1673310203        0.6793727593       -3.6941226657
 H          0.4446684501        1.6308860965       -0.8370621285
