  62
        -98.95003619
 C          1.9062341843        1.0330553850        0.0253844587
 C          1.3373637029        1.8183969174       -1.0074935693
 C          0.2697558135        2.7393095094       -0.5993606292
 C         -0.0764964503        2.8285902696        0.6977647128
 C         -1.1018082387        3.7628612044        1.2816355930
 C         -2.5475283507        3.2541747580        1.2029383602
 C         -3.1657173585        3.2727522282       -0.1950827315
 H         -4.2377966191        3.1049818279       -0.0764321650
 H         -3.0369391017        4.2601936772       -0.6396091118
 C         -2.6035509522        2.2031057370       -1.1406212093
 H         -3.4212809591        1.6997322343       -1.6624594809
 H         -2.0900165676        1.4319880227       -0.5622991058
 C         -1.6464808685        2.7252208373       -2.2123098536
 H         -1.2722407079        1.8596391279       -2.7666095657
 H         -2.1897336545        3.3654690885       -2.9117336647
 C         -0.4439262284        3.5083705570       -1.6687168668
 H          0.2595163950        3.6678229274       -2.4900237685
 H         -0.7677840908        4.4788122427       -1.2916242655
 H         -3.1513043784        3.8917594308        1.8525552351
 H         -2.5872063284        2.2370375986        1.5990274819
 H         -0.8391238447        3.8894071894        2.3341153721
 H         -1.0307564379        4.7325674816        0.7878020466
 O          0.5158782302        2.0790631657        1.6642628107
 C          1.4837368461        1.1321877871        1.3507981519
 O          1.8789915340        0.4691226397        2.3275302016
 H          0.7797181261       -0.9987453168       -1.4598212926
 C          1.1988960505       -1.7009151419       -0.7532388601
 C          2.3722998202       -1.3755446299       -0.0818115048
 C          2.9137271741       -2.3018035348        0.7990095188
 C          2.2755899275       -3.5110957236        1.0165657425
 C          1.0863526925       -3.8127265305        0.3790380319
 C          0.5405367436       -2.8967940612       -0.5148755316
 N         -0.6600787667       -3.1815716490       -1.1880118639
 S         -1.8680392641       -2.0402298464       -1.3604232825
 O         -2.9746480592       -2.7777658362       -1.9297064914
 O         -1.3879276011       -0.9197964127       -2.1247049748
 C         -2.2938590196       -1.5379920578        0.2975252115
 C         -3.4450221317       -2.0395956907        0.8732208033
 C         -3.7602801860       -1.6768044358        2.1727207078
 C         -2.9159898681       -0.8331849705        2.8790349168
 C         -1.7602060345       -0.3428127717        2.2908490789
 C         -1.4476502937       -0.6924876905        0.9865149838
 H         -0.5557846962       -0.3178350231        0.5079213112
 H         -1.0881996438        0.3052508318        2.8329499775
 H         -3.1565437199       -0.5532706073        3.8925243296
 H         -4.6595277915       -2.0543414726        2.6320735902
 H         -4.0707782375       -2.6927082914        0.2868343965
 H         -1.0602238654       -4.0802700838       -0.9598600896
 H          0.5828377539       -4.7490852976        0.5655698802
 H          2.7038508608       -4.2230503842        1.7055707932
 H          3.8270305426       -2.0740025974        1.3227537955
 C          2.9556901901       -0.0060954353       -0.3345807308
 H          3.1132124629        0.1034841265       -1.4177199989
 C          4.2635839203        0.2527110748        0.3799756650
 C          5.5420330384       -0.2850919125       -0.1877258088
 C          5.2582472665        1.1852102191       -0.2410231592
 H          5.8190859056        1.8443563650        0.4044350450
 H          5.0008976369        1.6241123241       -1.1941626076
 H          5.4819322505       -0.8460172491       -1.1082019676
 H          6.3026980472       -0.6351762808        0.4933615174
 H          4.1549598917        0.2869229417        1.4576552743
 O          1.7126484803        1.7587606384       -2.2093569522
