  62
        -98.93608472
 C         -2.1468795454       -0.6453789833        0.3249888616
 C         -2.6307263321        0.4515959947        1.0826345795
 C         -3.3971233179        1.4643728894        0.3452890330
 C         -3.5367826362        1.3385256916       -0.9867282322
 C         -4.3414039791        2.2599951330       -1.8557708910
 C         -5.7902894472        1.7698493748       -1.9885567660
 C         -6.4512835777        1.4245209501       -0.6539634676
 H         -7.4777874224        1.1197060649       -0.8688198594
 H         -5.9453317474        0.5596146288       -0.2185133306
 C         -6.4613043207        2.5720481927        0.3657380182
 H         -7.4533259908        2.6289914114        0.8186294422
 H         -6.2823970261        3.5202844347       -0.1423603197
 C         -5.4581233300        2.4135603185        1.5098678298
 H         -5.6964721650        3.1556492175        2.2764688506
 H         -5.5740313973        1.4262565339        1.9645797934
 C         -3.9829438362        2.6016473886        1.1338832719
 H         -3.8568231102        3.5460792363        0.6007046495
 H         -3.4065622837        2.6505170363        2.0624696276
 H         -5.7967884317        0.8749003029       -2.6151214529
 H         -6.3711451886        2.5429253618       -2.4948463763
 H         -4.3231353655        3.2615726925       -1.4304550799
 H         -3.8835446601        2.2860900576       -2.8459985134
 O         -2.9884035699        0.3183137612       -1.6922949094
 C         -2.2880118961       -0.7047649580       -1.0628137308
 O         -1.8546556076       -1.5697122961       -1.8446550063
 H          0.6166795796       -0.0456046402        0.6901081057
 C          0.8519085100       -1.0162937074        0.2695297673
 C         -0.0879957929       -2.0357000527        0.3676758251
 C          0.2217895674       -3.2760589199       -0.1720345498
 C          1.4366390270       -3.4795937510       -0.8036463515
 C          2.3633920710       -2.4599124251       -0.9106144449
 C          2.0653439029       -1.2147660333       -0.3712470806
 N          2.9930409239       -0.1604633172       -0.4903287191
 S          4.6021810679       -0.5194967075       -0.1154974830
 O          5.2046860745       -1.1682045613       -1.2525634613
 O          4.6695598520       -1.2455487814        1.1335199175
 C          5.2833109506        1.1155181237        0.0767340522
 C          5.6894984452        1.8039035205       -1.0505401639
 C          6.1958823262        3.0856769595       -0.9056510653
 C          6.2860754285        3.6546127045        0.3561303028
 C          5.8760217754        2.9504855721        1.4783057592
 C          5.3675529369        1.6684755447        1.3404700524
 H          5.0459703380        1.0812978137        2.1858747704
 H          5.9504493806        3.3939185228        2.4582117505
 H          6.6813696123        4.6520522061        0.4663810150
 H          6.5185396159        3.6354532968       -1.7750342457
 H          5.6089337133        1.3180220240       -2.0088403163
 H          2.6894115426        0.6637838514        0.0107809587
 H          3.3124208730       -2.6099436310       -1.3995323644
 H          1.6636430431       -4.4475575994       -1.2249255751
 H         -0.4955847592       -4.0782924421       -0.1190056139
 C         -1.3872767948       -1.7288887378        1.0690634499
 H         -1.1412521173       -1.2675132854        2.0406969729
 C         -2.2130263918       -2.9675656370        1.3820372456
 C         -3.6946539158       -2.8709568172        1.5868753594
 C         -3.1490508790       -3.5878906359        0.3903251430
 H         -3.2230374050       -4.6653293097        0.3628740529
 H         -3.2350545728       -3.1209703690       -0.5780367134
 H         -4.1570077910       -1.9059308788        1.4373656704
 H         -4.1437963106       -3.4521874642        2.3781130849
 H         -1.6817028695       -3.6486825845        2.0400522294
 O         -2.4263783541        0.5793836986        2.3200351414
