  62
        -98.93936676
 C          1.0126108478        1.4821694239        0.1033548376
 C          1.5312971772        0.5710202709        1.0552546940
 C          2.4923268564       -0.4196533704        0.5529124715
 C          2.7703977984       -0.4492077251       -0.7631592503
 C          3.8112481888       -1.3164785362       -1.4129407980
 C          5.2131886322       -0.7271366662       -1.1552957334
 C          6.1168084644       -1.6101164182       -0.2941976170
 H          6.9811021059       -1.0088060660       -0.0042135280
 H          6.4835136372       -2.4411645473       -0.9004754367
 C          5.4733980539       -2.1982043113        0.9656814295
 H          6.2870417889       -2.5669714806        1.5939448707
 H          4.8695637432       -3.0669091443        0.6994379335
 C          4.6117146367       -1.2356227581        1.7932075634
 H          4.9178541009       -0.2030669311        1.6234043975
 H          4.7864949617       -1.4481719131        2.8499204485
 C          3.0949882674       -1.3644773373        1.5547671910
 H          2.5753099258       -1.1479507276        2.4925676010
 H          2.8552455285       -2.3939676985        1.2766505124
 H          5.0935919095        0.2475543802       -0.6776536594
 H          5.7155426713       -0.5497403163       -2.1073817777
 H          3.7521762585       -2.3290113997       -1.0200556660
 H          3.5998666708       -1.3384339052       -2.4821433750
 O          2.1783151461        0.3782995034       -1.6600569212
 C          1.2828437068        1.3596259865       -1.2596517625
 O          0.8156047422        2.0318938233       -2.1966812119
 H         -1.3809806681        0.6492521761        1.6644972212
 C         -1.9297504213        1.1388734822        0.8699417831
 C         -1.3338097315        2.1998034686        0.1969391856
 C         -2.0371089011        2.8138695762       -0.8302634790
 C         -3.3039508775        2.3707339680       -1.1732854687
 C         -3.8954700428        1.3170345562       -0.5000378957
 C         -3.1978804160        0.6977393409        0.5293700285
 N         -3.7883479658       -0.3943678858        1.2088970369
 S         -3.9187985013       -1.8007029682        0.3103421468
 O         -4.7751598532       -1.5493979042       -0.8194741342
 O         -4.3565898198       -2.8208416772        1.2348012425
 C         -2.2600075444       -2.1535730296       -0.2439508721
 C         -1.7570653984       -1.4678285525       -1.3317964084
 C         -0.4543319706       -1.7147380974       -1.7330578926
 C          0.3172247077       -2.6378030769       -1.0445190404
 C         -0.1989097020       -3.3102809590        0.0520692235
 C         -1.4983398646       -3.0624891902        0.4625302108
 H         -1.9416501712       -3.5671559118        1.3060403651
 H          0.4058353883       -4.0249900156        0.5868293288
 H          1.3261727285       -2.8326679100       -1.3703887402
 H         -0.0441274498       -1.1781071783       -2.5744612864
 H         -2.3848622579       -0.7626433593       -1.8522095037
 H         -3.3210671235       -0.6101958639        2.0793742801
 H         -4.8728607787        0.9501769980       -0.7678527558
 H         -3.8380494875        2.8536594155       -1.9775816203
 H         -1.5866514922        3.6274567715       -1.3740164204
 C          0.0724479547        2.5730844578        0.5921496152
 H          0.1312851347        2.5337633118        1.6888970451
 C          0.5001793425        3.9492879549        0.1320745441
 C         -0.0545789181        5.1574356523        0.8238038956
 C          1.3809173900        4.7750052033        1.0193617799
 H          2.1450863186        5.3853957320        0.5619733951
 H          1.6722387390        4.3523893533        1.9699796338
 H         -0.7396004668        4.9921950606        1.6416876471
 H         -0.2775588075        6.0333585113        0.2341681293
 H          0.6768670339        4.0101157161       -0.9344851757
 O          1.2091962142        0.5928113480        2.2747553435
