  62
        -98.94046791
 C         -1.7115793303       -0.2982926495        1.2447905290
 C         -1.7878175601       -0.3627836097       -0.1690953010
 C         -3.1253828900       -0.6288881099       -0.7250173011
 C         -4.1683013801       -0.8047531299        0.1049956888
 C         -5.5869483600       -1.0273932702       -0.3309192714
 C         -6.3441533201        0.3026038597       -0.4514517517
 C         -5.5958044101        1.3688380897       -1.2516912818
 H         -4.6928090402        1.6553849399       -0.7074850217
 H         -6.2371013602        2.2518883796       -1.2957278320
 C         -5.2138512299        0.9421245795       -2.6759671417
 H         -5.4507472299        1.7590950494       -3.3608939418
 H         -5.8135226997        0.0826811594       -2.9781011016
 C         -3.7308579098        0.6172125397       -2.8651634414
 H         -3.1227663400        1.4377090398       -2.4754614214
 H         -3.5339656497        0.5450476995       -3.9381036514
 C         -3.2462771498       -0.6882486402       -2.2218040311
 H         -2.2377510997       -0.8869524201       -2.5955936310
 H         -3.8956751396       -1.5118262003       -2.5251906511
 H         -6.5226596803        0.6917451899        0.5537429482
 H         -7.3122630300        0.1081846596       -0.9167059018
 H         -5.5912508298       -1.5481933903       -1.2863721513
 H         -6.0827513900       -1.6508223001        0.4150874086
 O         -4.0544488403       -0.7449688597        1.4568459988
 C         -2.8374361204       -0.4634370495        2.0556023989
 O         -2.8869112705       -0.3843973693        3.2996260689
 H          2.0261534998        0.1065737508        0.6623331095
 C          1.5126043297        1.0524962308        0.6553855692
 C          0.2753077296        1.1767459807        1.2644598291
 C         -0.3709623006        2.4096586506        1.2202238788
 C          0.2059864094        3.4859343806        0.5753524687
 C          1.4438858695        3.3587210407       -0.0303949411
 C          2.0963342896        2.1326553007        0.0078678792
 N          3.3288733097        1.9617473508       -0.6319704507
 S          4.4523105498        0.8509383110       -0.1084295803
 O          4.5118859996        0.7868983912        1.3343575597
 O          5.6806158398        1.2434643210       -0.7674426602
 C          3.9234940300       -0.7186731592       -0.7644367202
 C          3.1661393202       -0.7705569894       -1.9169862203
 C          2.8036476104       -2.0088795396       -2.4223484301
 C          3.2092405004       -3.1674471894       -1.7786981299
 C          3.9743137503       -3.0987906892       -0.6245572998
 C          4.3350595401       -1.8635236590       -0.1103345199
 H          4.9165748999       -1.7643456588        0.7926442201
 H          4.2868931903       -4.0008766091       -0.1227442696
 H          2.9234258206       -4.1290681895       -2.1749970098
 H          2.2003690905       -2.0638634598       -3.3141041002
 H          2.8529549102        0.1444246304       -2.3909931204
 H          3.7427413197        2.7882287408       -1.0346293907
 H          1.8954843195        4.1973916306       -0.5381539112
 H         -0.3093572907        4.4343921406        0.5447093285
 H         -1.3402960306        2.5077954106        1.6912092386
 C         -0.4090437704        0.0251224908        1.9577326091
 H         -0.7111019206        0.3692530609        2.9611689790
 C          0.5043282897       -1.1730352891        2.1681272694
 C         -0.0623040302       -2.5451591191        2.3746594996
 C          0.6987353099       -2.2294025793        1.1238226896
 H          1.6863005800       -2.6504143392        1.0028779298
 H          0.1556182801       -2.1240669894        0.1985166395
 H         -1.1350216202       -2.6564430093        2.3102135994
 H          0.3987769598       -3.1836569990        3.1130755997
 H          1.3735788796       -0.9155366989        2.7672253995
 O         -0.8060861400       -0.2087456197       -0.9384856009
