  62
        -98.94043139
 C          1.4685421591        1.5494064797       -0.1237945800
 C          1.4902345492        0.1731670899        0.1997803708
 C          2.8087393893       -0.4050782298        0.5224713909
 C          3.9000805192        0.3821274402        0.4942166403
 C          5.3538004093        0.0850288304        0.7996938602
 C          5.8365135794       -1.3532396994        0.9668173110
 C          5.8309096892       -2.1825527002       -0.3176879486
 H          6.6213225191       -1.8080902305       -0.9732354789
 H          6.0757780693       -3.2152472700       -0.0598914680
 C          4.5280251891       -2.1624929207       -1.1133059784
 H          4.3140714190       -1.1427147609       -1.4395620089
 H          4.6788025189       -2.7636043612       -2.0142367280
 C          3.3062704092       -2.7163774003       -0.3835553078
 H          2.4881714891       -2.7686428508       -1.1065765277
 H          3.5153504593       -3.7300188801       -0.0360052073
 C          2.8159224294       -1.8792973297        0.8090093218
 H          1.7749155894       -2.1505652196        1.0084910821
 H          3.3902073895       -2.0961910091        1.7062151218
 H          5.2692708895       -1.8504888290        1.7479793813
 H          6.8711017594       -1.2959137092        1.3161873408
 H          5.9316887991        0.5669389500        0.0043698899
 H          5.5808330794        0.6360668510        1.7190838599
 O          3.8222539991        1.7135294300        0.1927080696
 C          2.6228572590        2.3272016598       -0.1235824606
 O          2.7159537689        3.5462496697       -0.3743588313
 H         -2.3841089310        1.1072130693       -0.6792992791
 C         -2.0912943409        1.3426880598        0.3291113508
 C         -0.8640826708        1.9285156100        0.5921686202
 C         -0.5479147606        2.2525290608        1.9095509800
 C         -1.4282380704        1.9731556014        2.9360882303
 C         -2.6362154205        1.3497919812        2.6744107308
 C         -2.9661265607        1.0348134804        1.3623075311
 N         -4.1850377207        0.4132551302        1.0632822016
 S         -4.3397903409       -0.6088158006       -0.2464455878
 O         -4.4234785511        0.1591037987       -1.4645740382
 O         -5.5099970208       -1.4023309405        0.0695004029
 C         -2.9019857508       -1.6630864205       -0.2794971674
 C         -2.5741602206       -2.3744721099        0.8562076930
 C         -1.4840982406       -3.2269496699        0.8198396033
 C         -0.7468582708       -3.3572727705       -0.3457441768
 C         -1.0903046910       -2.6380480411       -1.4779523671
 C         -2.1773452910       -1.7812489312       -1.4464986374
 H         -2.4738408612       -1.1972307317       -2.3040754977
 H         -0.5089548911       -2.7329071016       -2.3819346172
 H          0.1063183593       -4.0174372405       -0.3698357066
 H         -1.2068488704       -3.7815818093        1.7022608435
 H         -3.1679943905       -2.2572055494        1.7484891030
 H         -4.7175993905        0.0973427306        1.8595846619
 H         -3.3174610503        1.1121743816        3.4770603111
 H         -1.1676586803        2.2289543919        3.9522083601
 H          0.4066886694        2.7177997710        2.1167241296
 C          0.1506687690        2.2088191995       -0.4882729101
 H          0.3420473989        3.2911171795       -0.5202097908
 C         -0.2907484112        1.7467690387       -1.8613553198
 C         -1.1962963314        2.6038391682       -2.6920737601
 C          0.2429318485        2.4396908880       -3.0771036503
 H          0.4808619784        1.8461377275       -3.9471213900
 H          0.9144685585        3.2713122981       -2.9194968208
 H         -1.9538643915        2.1240655178       -3.2939616897
 H         -1.5053010714        3.5515774784       -2.2773889506
 H         -0.4161255912        0.6707698186       -1.9150025791
 O          0.4587375792       -0.5438820101        0.2270393914
