  62
        -98.93603567
 C         -2.2898707623       -0.7346744641        0.0864974871
 C         -3.3194195425       -0.4577531261        1.0197006473
 C         -4.2962435517        0.5681066262        0.6273905658
 C         -4.1459145810        1.1958656067       -0.5531626086
 C         -5.0934975828        2.2098656278       -1.1283145339
 C         -6.3350452214        1.5015268688       -1.7071602378
 C         -7.6402586977        1.8213725048       -0.9781483849
 H         -7.9712321254        2.8216515268       -1.2652861133
 H         -8.3930296065        1.1121665763       -1.3289778738
 C         -7.5804395790        1.7691164946        0.5515134159
 H         -8.6120807016        1.7530799491        0.9094110174
 H         -7.1335582454        2.6883351695        0.9330653441
 C         -6.8318998107        0.5728704024        1.1535062621
 H         -6.8187855900       -0.2641757186        0.4551225150
 H         -7.3793678431        0.2400811501        2.0376953791
 C         -5.3927879112        0.8802393341        1.6080604484
 H         -5.3222542531        1.9278972514        1.9133500185
 H         -5.1653298663        0.2672362509        2.4851672008
 H         -6.4538860007        1.7752460694       -2.7566070526
 H         -6.1572940130        0.4243353040       -1.6822898604
 H         -5.3827497693        2.9211865473       -0.3579702929
 H         -4.5594743284        2.7437510024       -1.9145407923
 O         -3.1320828995        0.9183918430       -1.4125506451
 C         -2.1796523747       -0.0478616268       -1.1220889939
 O         -1.3172730324       -0.1914670301       -2.0093060968
 H          0.9200644595       -1.5655532325       -1.2191308595
 C          1.0693598759       -1.0753910979       -0.2699707111
 C          0.0667333100       -1.1034900203        0.6862094935
 C          0.2802924947       -0.4455863456        1.8948067126
 C          1.4657128715        0.2223086515        2.1354584272
 C          2.4606170305        0.2569985361        1.1734300908
 C          2.2562518434       -0.3919392382       -0.0361444873
 N          3.2509561788       -0.3383182948       -1.0265787920
 S          4.8279001006       -0.7223915603       -0.6090061667
 O          5.4555913947       -1.1468354819       -1.8414151449
 O          4.8711358239       -1.6606458010        0.4889196202
 C          5.5328906904        0.8339466403       -0.1073107040
 C          6.1344196078        0.9503782682        1.1304421494
 C          6.6863967716        2.1684331912        1.4956817997
 C          6.6279978893        3.2424586136        0.6209512265
 C          6.0225674815        3.1083980399       -0.6198031489
 C          5.4703024177        1.8930958617       -0.9914633806
 H          4.9938542940        1.7474905118       -1.9467148066
 H          5.9785347634        3.9459691450       -1.2972857700
 H          7.0567456930        4.1898175015        0.9073923897
 H          7.1581352107        2.2744664121        2.4593763977
 H          6.1508670352        0.0897035503        1.7799704927
 H          2.9834904118       -0.7750084514       -1.8965140408
 H          3.3859934099        0.7801397198        1.3513676667
 H          1.6174465574        0.7244931313        3.0788323628
 H         -0.5020859056       -0.4618711925        2.6409137171
 C         -1.2568395684       -1.7881941133        0.4511498553
 H         -1.5957390896       -2.2058792019        1.4090218396
 C         -1.1988682528       -2.9033136292       -0.5714465496
 C         -0.5006963960       -4.1828133974       -0.2226667189
 C         -1.9942395847       -4.1516040698       -0.3406678283
 H         -2.4548434260       -4.6328940704       -1.1904122967
 H         -2.5797957341       -4.2109709414        0.5649696050
 H         -0.0693987571       -4.2608687613        0.7640159004
 H          0.0666144790       -4.6883881092       -0.9894737551
 H         -1.1256845954       -2.5472432319       -1.5920648230
 O         -3.4158566236       -1.0434848902        2.1314073369
