  62
        -98.94023164
 C         -1.6667783515       -1.0003997300        0.6814403384
 C         -2.0476779605       -0.5647514493       -0.6117427767
 C         -2.8993837370        0.6338208275       -0.6558611726
 C         -3.2169065394        1.2805091809        0.4792010873
 C         -4.0495477710        2.5288329077        0.5884678417
 C         -5.5620323483        2.2680630085        0.6059756278
 C         -6.1657759774        1.8469372643       -0.7344649017
 H         -7.2508673406        1.9102642614       -0.6310036008
 H         -5.8709336514        2.5598441522       -1.5052158966
 C         -5.7954254929        0.4245199211       -1.1774031891
 H         -5.4180569961       -0.1373404339       -0.3197718544
 H         -6.6915074763       -0.0924025163       -1.5283611568
 C         -4.7648791721        0.3590174701       -2.3047918360
 H         -4.5507746613       -0.6925694766       -2.5129020440
 H         -5.1846632719        0.8016163538       -3.2109304359
 C         -3.4370042434        1.0598982657       -1.9890026468
 H         -3.5665548423        2.1415260852       -2.0207196360
 H         -2.7087107989        0.7719464378       -2.7513470183
 H         -5.7764505712        1.5048700344        1.3577103550
 H         -6.0485598987        3.1930409639        0.9239337618
 H         -3.8060917163        3.2072565987       -0.2297041862
 H         -3.7728121981        3.0054574990        1.5312459091
 O         -2.7824212839        0.8648342158        1.6980149647
 C         -2.0336730083       -0.2920337433        1.8307099240
 O         -1.7541489477       -0.5840223782        3.0098519003
 O         -1.7043372168       -1.1228639253       -1.6864362773
 C         -0.8475117416       -2.2579275243        0.9322881657
 C          0.6263793218       -1.9745652447        0.8000607309
 C          1.5079129323       -2.2496997459        1.8382422975
 C          2.8583681981       -1.9731904276        1.7076633112
 C          3.3551259481       -1.4161395722        0.5430777442
 C          2.4787915027       -1.1276791271       -0.4958784078
 C          1.1262700260       -1.4044941767       -0.3632667743
 H          0.4481514878       -1.1823555910       -1.1741737654
 N          2.9674381309       -0.5444681211       -1.6783030037
 S          4.0206925227        0.7444112083       -1.5170870562
 O          3.8260723099        1.5525812860       -2.6999699736
 O          5.3588176274        0.2485487990       -1.3104875389
 C          3.4792781238        1.6228285228       -0.0598954264
 C          4.3555855540        1.8169401245        0.9882056293
 C          3.9116574714        2.4827585957        2.1194536891
 C          2.6035575243        2.9363088579        2.1842006881
 C          1.7352972799        2.7355589311        1.1218210737
 C          2.1747988129        2.0736345777       -0.0128535742
 H          1.5198880848        1.9056128076       -0.8535456299
 H          0.7161866910        3.0847918737        1.1757542724
 H          2.2542927757        3.4482410625        3.0669472268
 H          4.5839133631        2.6418970135        2.9470412243
 H          5.3621759823        1.4422259051        0.8976718977
 H          2.2467869561       -0.3496202220       -2.3582721736
 H          4.4046697469       -1.2026595971        0.4205878144
 H          3.5321469546       -2.1938492399        2.5211505309
 H          1.1261621688       -2.6718046549        2.7561896210
 H         -1.0409297312       -2.5165120291        1.9848510629
 C         -1.3122574426       -3.4372485711        0.0860497174
 C         -0.4843453215       -4.0824705961       -0.9808595261
 C         -0.7185768988       -4.7960034829        0.3143894888
 H         -1.3732163985       -5.6542122061        0.3270991987
 H          0.1115362265       -4.8623473177        1.0017451108
 H         -0.9954032681       -4.4282855876       -1.8667164243
 H          0.5024806383       -3.6933080420       -1.1756269773
 H         -2.3814477562       -3.4027967624       -0.0985482856
