  62
        -98.94479389
 C         -1.6885410773       -1.0373105492       -0.6695670424
 C         -1.6447416827        0.1480503231        0.1050110009
 C         -2.8944237115        0.5075432599        0.7898191037
 C         -3.9743341962       -0.2865965108        0.6823825407
 C         -5.3081257997       -0.0660394297        1.3430804666
 C         -6.2345743559        0.8903940979        0.5796345954
 C         -5.8373174492        2.3660408192        0.6367638921
 H         -6.6830673816        2.9401570237        0.2531460885
 H         -5.6887093984        2.6609789173        1.6760404659
 C         -4.5889444584        2.7181688382       -0.1841101824
 H         -4.3840488253        1.9161362171       -0.8967349852
 H         -4.7791898488        3.6231126775       -0.7654037854
 C         -3.3325811395        2.9711418728        0.6495462806
 H         -2.5029052614        3.1735011785       -0.0322399858
 H         -3.4780459285        3.8553149455        1.2742522983
 C         -2.9280681907        1.7980134578        1.5519409383
 H         -3.6100324171        1.7222517597        2.3989350542
 H         -1.9203129953        1.9847868473        1.9327867783
 H         -6.2878177854        0.5671925537       -0.4624617229
 H         -7.2332082518        0.7883707185        1.0106331018
 H         -5.1569734660        0.3037729072        2.3577896146
 H         -5.7922658693       -1.0434903167        1.3982866578
 O         -3.9674099710       -1.4324213465       -0.0495855356
 C         -2.8360926403       -1.8301218549       -0.7420460722
 O         -2.9750075919       -2.8951855400       -1.3774064503
 O         -0.6295582831        0.8813203669        0.2205832585
 C         -0.4615241333       -1.5394413711       -1.4159248757
 C          0.5245133408       -2.0623138903       -0.3983183527
 C          0.2466577989       -3.2649158986        0.2477722696
 C          1.1094638527       -3.7668227056        1.2023092109
 C          2.2571237417       -3.0714582269        1.5449567249
 C          2.5387016668       -1.8669606317        0.9140269944
 C          1.6808034074       -1.3776952411       -0.0624878464
 H          1.9163096821       -0.4484158867       -0.5489213104
 N          3.7006010267       -1.1380201384        1.2239296150
 S          3.5357626749        0.4878595048        1.6324590359
 O          4.7564043547        0.7925062398        2.3525353883
 O          2.3066299114        0.7260219966        2.3509694762
 C          3.5666848475        1.3499955555        0.0763409937
 C          2.4413244308        2.0081447334       -0.3788047548
 C          2.5047823004        2.6644898223       -1.5989306316
 C          3.6803907882        2.6531955535       -2.3337092919
 C          4.8019197068        1.9901440650       -1.8579414502
 C          4.7475627213        1.3321976970       -0.6401049837
 H          5.5960500190        0.8115169978       -0.2285164269
 H          5.7141140995        1.9832458989       -2.4324855378
 H          3.7205426235        3.1636397022       -3.2833041491
 H          1.6300452703        3.1753736580       -1.9698608708
 H          1.5338365416        1.9708938416        0.2044738206
 H          4.3060792356       -1.5977346691        1.8899761294
 H          2.9279079081       -3.4578021155        2.2979876868
 H          0.8852069847       -4.7031963565        1.6911536657
 H         -0.6592608638       -3.7968668860       -0.0095527152
 H         -0.8055537499       -2.3933093972       -2.0160260429
 C          0.1137689526       -0.4887036106       -2.3413931628
 C          1.1115149010       -0.8927485325       -3.3837190872
 C         -0.2736816007       -0.4884665325       -3.7880799011
 H         -0.4112981946        0.4606949916       -4.2836281033
 H         -0.9534510122       -1.2580297943       -4.1244143244
 H          1.9287683013       -0.2216647992       -3.6000353972
 H          1.3715774017       -1.9387059770       -3.4442257802
 H          0.2447249268        0.4740887637       -1.8646648144
