  62
        -98.93906650
 C          2.2736855761        0.0231430021        0.2294340459
 C          3.2976452902        0.7314630330       -0.4468656802
 C          4.5058016356       -0.0412726030       -0.7678534737
 C          4.5731678359       -1.3488621150       -0.4632692656
 C          5.7271617687       -2.2705503153       -0.7501993807
 C          6.8429496169       -2.2178161309        0.3026578793
 C          7.7008405138       -0.9520422146        0.2796359902
 H          8.5694426083       -1.1429176290        0.9130278236
 H          8.0675054695       -0.7815742570       -0.7330097405
 C          6.9860727201        0.3072332433        0.7894000132
 H          7.6419581748        0.8447070900        1.4780275520
 H          6.0972641436        0.0181272677        1.3551333527
 C          6.5761308254        1.2909237547       -0.3065841679
 H          6.0458591268        2.1237847795        0.1619509168
 H          7.4687606618        1.6904298340       -0.7929976403
 C          5.6606992499        0.6916065704       -1.3819655817
 H          5.2542661240        1.5095179210       -1.9815508724
 H          6.2290200991        0.0282464102       -2.0331963041
 H          6.3947589024       -2.3365918964        1.2919172856
 H          7.4954483509       -3.0765208946        0.1285008601
 H          6.1413828110       -2.0451541127       -1.7332436200
 H          5.3181940365       -3.2830320392       -0.7681917017
 O          3.5517622049       -2.0062571850        0.1483021759
 C          2.4021664664       -1.3373576994        0.5288397837
 O          1.5717173432       -2.0564242049        1.1225109722
 O          3.2340820817        1.9444043270       -0.7796524332
 C          0.9756205366        0.6638069965        0.6921167495
 C         -0.0413356245        0.7827170625       -0.4180953718
 C          0.2134393924        1.5244916663       -1.5669621058
 C         -0.7573244422        1.6560233826       -2.5427361433
 C         -2.0034865454        1.0760379352       -2.3830184283
 C         -2.2653488116        0.3286916751       -1.2409814262
 C         -1.2805589863        0.1765274240       -0.2750232284
 H         -1.4953443993       -0.4192276901        0.6007762165
 N         -3.5135312994       -0.2844456483       -1.0506439330
 S         -4.1286779951       -0.3579604686        0.5203351445
 O         -3.8406356174        0.8717081502        1.2228167578
 O         -3.6659526781       -1.5726881328        1.1441942353
 C         -5.8758606419       -0.4792270608        0.1841613563
 C         -6.4136524477       -1.7141545712       -0.1259550294
 C         -7.7658091396       -1.8011428910       -0.4172054773
 C         -8.5527746539       -0.6590878638       -0.3948745493
 C         -7.9991632200        0.5728067307       -0.0800118962
 C         -6.6474076633        0.6672942457        0.2112812720
 H         -6.1748673233        1.6011561075        0.4701942111
 H         -8.6139726421        1.4581291350       -0.0596062691
 H         -9.6049360208       -0.7302249803       -0.6210261833
 H         -8.2003202713       -2.7576070293       -0.6591722524
 H         -5.7652375778       -2.5749218935       -0.1212090925
 H         -4.2093702880        0.0160347436       -1.7193341246
 H         -2.7658741943        1.1951596023       -3.1379522217
 H         -0.5466835522        2.2315015200       -3.4315886987
 H          1.1774293150        1.9948349027       -1.6839858659
 H          0.5579183269       -0.0222914619        1.4425864705
 C          1.1736797132        2.0197939879        1.3459263893
 C          0.0638453091        2.5823734168        2.1800813626
 C          1.3264253176        2.1059704857        2.8327553465
 H          2.0054273673        2.8403165843        3.2396871751
 H          1.2931617444        1.1828091953        3.3937768037
 H         -0.1226965271        3.6446235821        2.1382393239
 H         -0.8310874863        1.9866337965        2.2926652068
 H          1.7494506521        2.7075255543        0.7408760070
