  62
        -98.93359632
 C          2.2914639544        0.8689502160        0.1344850960
 C          2.4356976554       -0.5081688571        0.4418718690
 C          3.6075421466       -1.2054811516       -0.1143589853
 C          4.4820318906       -0.5184182040       -0.8724415292
 C          5.7349299615       -0.9582444510       -1.6008404751
 C          6.3934427798       -2.2981334466       -1.2828989893
 C          7.0053807825       -2.3946929773        0.1140310220
 H          7.3591952271       -3.4173460269        0.2616178161
 H          7.8732127393       -1.7320898014        0.1602278640
 C          6.0781867794       -2.0192084152        1.2673099775
 H          6.6392214828       -2.1348084149        2.1986585154
 H          5.8008106768       -0.9660831659        1.1883586170
 C          4.8070425219       -2.8583163052        1.3851177038
 H          4.3272493072       -2.5979390134        2.3325533038
 H          5.0672006872       -3.9179393338        1.4230031736
 C          3.7670755420       -2.6482070973        0.2701855618
 H          2.7937758080       -2.9742567333        0.6489808733
 H          3.9949474798       -3.2542209432       -0.6037274973
 H          7.2029463103       -2.4257946840       -2.0067158410
 H          5.6924213952       -3.1109390681       -1.4481537005
 H          5.4791768002       -0.9425437602       -2.6660327537
 H          6.4635355104       -0.1559899182       -1.4474854220
 O          4.3003584070        0.8041346955       -1.1470485576
 C          3.2250447655        1.5309558314       -0.6613538640
 O          3.2422826599        2.7261613131       -1.0143866808
 O          1.6134029266       -1.1374881271        1.1629382475
 C          1.0881941680        1.5801327693        0.7282351447
 C         -0.0371705630        1.7281294136       -0.2686529520
 C          0.1179872733        2.4634784165       -1.4392442851
 C         -0.9356959736        2.5950306160       -2.3248193387
 C         -2.1587561216        2.0046532168       -2.0610533416
 C         -2.3282154338        1.2767149085       -0.8886278455
 C         -1.2667557167        1.1412891358       -0.0044387378
 H         -1.4027479222        0.5559181230        0.8925759480
 N         -3.5809506184        0.7211915159       -0.5773943558
 S         -3.6788515041       -0.7241416806        0.2870173315
 O         -3.3811444268       -0.4597745384        1.6719339018
 O         -2.8935840581       -1.7505031852       -0.3619876494
 C         -5.4200924820       -1.0638315467        0.1063858880
 C         -6.3115887397       -0.3473388169        0.8827903900
 C         -7.6691879315       -0.5789217999        0.7306217825
 C         -8.1108677082       -1.5180457243       -0.1898493083
 C         -7.2045289666       -2.2314211174       -0.9595443781
 C         -5.8449132925       -2.0031331550       -0.8136519869
 H         -5.1034087753       -2.5382391831       -1.3850148542
 H         -7.5506725750       -2.9632869692       -1.6714780087
 H         -9.1680976105       -1.6969409387       -0.3061037664
 H         -8.3767000423       -0.0282063705        1.3292255045
 H         -5.9212752387        0.3648147646        1.5908621435
 H         -4.2070879841        0.7093965872       -1.3714583450
 H         -2.9791421496        2.1105479380       -2.7546278167
 H         -0.8017448952        3.1625826098       -3.2334562022
 H          1.0728918811        2.9188238601       -1.6512431310
 H          0.7304089601        0.9159430258        1.5275769006
 C          1.4245033933        2.9264550008        1.3415677149
 C          0.5014005123        3.5004513342        2.3723509230
 C          1.8530061613        2.9930549114        2.7750501587
 H          2.6134273007        3.7076186651        3.0520818188
 H          1.9059485225        2.0637560685        3.3240166261
 H          0.3305602934        4.5658743637        2.3742532755
 H         -0.3630548111        2.9146113636        2.6482478847
 H          1.8964786236        3.6093389496        0.6474643169
