  62
        -98.94313258
 C         -0.8578007544       -1.3635914644        0.0225261281
 C         -1.8619066078       -1.1339872854        0.9882298549
 C         -2.6665463360        0.0879498085        0.8238329274
 C         -2.4059611796        0.9165331903       -0.2044989410
 C         -3.0285061608        2.2442065025       -0.5845780001
 C         -4.3979852612        2.6507098575       -0.0441184527
 C         -5.5596448469        1.7678857595       -0.4963257633
 H         -6.4655043412        2.1216238427        0.0010819620
 H         -5.6990052534        1.8957089709       -1.5725824341
 C         -5.3967535431        0.2743762533       -0.2242796005
 H         -4.5795315173       -0.1229746141       -0.8295809652
 H         -6.3120958245       -0.2263435221       -0.5511907454
 C         -5.1579146259       -0.1025547329        1.2372106464
 H         -5.9345389134        0.3397448568        1.8640347492
 H         -5.2459174711       -1.1895818557        1.3132304372
 C         -3.7815712108        0.2876221195        1.8086412117
 H         -3.7795630135        1.3081200671        2.1860162599
 H         -3.5663841786       -0.3715699299        2.6549624284
 H         -4.5885182751        3.6619789721       -0.4143337464
 H         -4.3729424649        2.7132423570        1.0400142790
 H         -2.3042487172        3.0108629651       -0.2868413548
 H         -3.0610348884        2.2506160733       -1.6783659968
 O         -1.4083791133        0.6637065431       -1.1004815545
 C         -0.6131086868       -0.4671535273       -1.0160468557
 O          0.2518131734       -0.5570527136       -1.9061758220
 H          1.1283699644       -0.4464058609        1.2567006579
 C          1.8671567208       -1.0975543552        0.8126793440
 C          1.4675185089       -2.2643297966        0.1749522890
 C          2.4454879159       -3.0901266446       -0.3678986995
 C          3.7829302183       -2.7464061128       -0.2813485693
 C          4.1738120541       -1.5701874145        0.3314557947
 C          3.2035625631       -0.7391227806        0.8800750917
 N          3.5601359043        0.4642689009        1.5097001071
 S          2.5909938238        1.8120844034        1.3809068496
 O          3.4640601865        2.9067552307        1.7566724447
 O          1.4057721734        1.6651622176        2.1910235252
 C          2.1387394661        2.0082068189       -0.3337071738
 C          2.9899246003        1.6008994492       -1.3401468701
 C          2.6284037184        1.8351579613       -2.6565142091
 C          1.4384353065        2.4825717074       -2.9441785991
 C          0.5997206145        2.8961807235       -1.9227523979
 C          0.9509716399        2.6544967835       -0.6054789985
 H          0.3195628066        2.9394256947        0.2223655577
 H         -0.3308946533        3.3924369252       -2.1472498416
 H          1.1574095579        2.6582526021       -3.9706004492
 H          3.2742609607        1.5046397792       -3.4539540409
 H          3.9111939585        1.0956584649       -1.1008044725
 H          4.5393972556        0.7046675885        1.4611075424
 H          5.2161422183       -1.2958654058        0.3896621114
 H          4.5308441878       -3.3982497936       -0.7061751859
 H          2.1583997464       -4.0047563087       -0.8602074263
 C         -0.0006543967       -2.6087042551        0.1245737703
 H         -0.2751444186       -3.0775768704        1.0823262957
 C         -0.3436279675       -3.5666088181       -1.0005577863
 C         -0.3156424831       -5.0489715168       -0.7801709087
 C         -1.6263200856       -4.3375856933       -0.9238124328
 H         -2.1987296001       -4.4806461452       -1.8280107686
 H         -2.2332536202       -4.1970045797       -0.0411036435
 H         -0.0411355537       -5.4052478216        0.2013296409
 H          0.0104251183       -5.6845928381       -1.5897518774
 H         -0.0463810397       -3.1851986801       -1.9711504915
 O         -2.0774799536       -1.9157378110        1.9556682900
