  62
        -98.94850673
 C         -1.2463063750       -1.5142661853        0.5008883750
 C         -2.1635513272       -1.1751723517       -0.5226944081
 C         -3.1997092574       -0.1999557185       -0.1553900947
 C         -3.2241788632        0.3020056936        1.0924212944
 C         -4.1993404858        1.3309212910        1.5850741876
 C         -3.6480382321        2.7529604924        1.4144924606
 C         -3.0921598192        3.0442238743        0.0200612609
 H         -2.7828962526        4.0923068910        0.0095505069
 H         -2.1846303401        2.4550463828       -0.1370121175
 C         -4.0813643779        2.7931695317       -1.1267228855
 H         -4.0143507839        3.6266537267       -1.8293113830
 H         -5.1007857586        2.7770600951       -0.7384362264
 C         -3.8223391061        1.5159090897       -1.9282460650
 H         -2.7687008451        1.4771096316       -2.2185262677
 H         -4.4144731948        1.5652551869       -2.8462221296
 C         -4.1772991486        0.2005954561       -1.2232123132
 H         -5.1910825437        0.2586583022       -0.8217780827
 H         -4.1468458263       -0.5968832572       -1.9715156769
 H         -4.4465649723        3.4613864922        1.6446992920
 H         -2.8406044641        2.9030078090        2.1351764812
 H         -5.1354973822        1.2257622972        1.0401039824
 H         -4.3839009153        1.1490121892        2.6455090482
 O         -2.3287791872       -0.0502146771        2.0497610387
 C         -1.2991464802       -0.9333199001        1.7667241107
 O         -0.5071014409       -1.1213931554        2.7139831506
 H          0.4202812749        0.1141257582       -0.2433132255
 C          0.9627823864       -0.5166974011       -0.9293495587
 C          0.7898437744       -1.8917703172       -0.8754147191
 C          1.4755882410       -2.6790089086       -1.7927227075
 C          2.2972357868       -2.0919855978       -2.7396847396
 C          2.4697782726       -0.7199207850       -2.7842791807
 C          1.7905362109        0.0752540919       -1.8686497398
 N          1.9194869549        1.4719770792       -1.8718627279
 S          1.8710677771        2.3146550595       -0.4288681569
 O          0.5283890423        2.3532174885        0.0926975545
 O          2.4597972756        3.5973933690       -0.7505630293
 C          2.9627431566        1.4117795322        0.6554735367
 C          4.3157760025        1.4742889597        0.3788398360
 C          5.1980121430        0.7483030551        1.1606936579
 C          4.7147546518       -0.0326313325        2.2003248883
 C          3.3563378436       -0.0808907714        2.4689353177
 C          2.4683536502        0.6476412836        1.6919452890
 H          1.4075456870        0.6191513684        1.8875641176
 H          2.9686364563       -0.6844013423        3.2744006297
 H          5.3991495437       -0.6042754584        2.8070424179
 H          6.2558303124        0.7898896868        0.9573174907
 H          4.6521343593        2.1020565707       -0.4302723859
 H          2.6126847874        1.8405547698       -2.5056187040
 H          3.1112366524       -0.2666967105       -3.5241555990
 H          2.8170548957       -2.7138709946       -3.4524478277
 H          1.3596008294       -3.7503177561       -1.7709860842
 C         -0.0999848297       -2.4623056199        0.2045893659
 H          0.4943509222       -2.5189322591        1.1295654190
 C         -0.6218980724       -3.8466111936       -0.1238832449
 C          0.1554068365       -5.0652081274        0.2714854742
 C         -1.1100626396       -4.7169041437        0.9939791260
 H         -1.9867890000       -5.3250291129        0.8296221795
 H         -1.0364167575       -4.3207008397        1.9966732005
 H          1.0893954344       -4.9177061212        0.7924567860
 H          0.1460247545       -5.9189871268       -0.3892740494
 H         -1.1763821284       -3.8696552461       -1.0546912993
 O         -2.1195622130       -1.6583951022       -1.6844022727
