  62
        -98.93947422
 C          1.7769453794        0.6408975804        0.9000252597
 C          2.9599378394        1.1028201102        0.2712845694
 C          4.0736205594        0.1415805701        0.2098688597
 C          3.9149847993       -1.0973495197        0.7071667902
 C          4.9446832693       -2.1873647598        0.6487149505
 C          4.7867586591       -3.0363597403       -0.6205504692
 C          4.6684426790       -2.2144518907       -1.9041272295
 H          4.5923087089       -2.9188439110       -2.7354261892
 H          3.7355460191       -1.6462236807       -1.8798728296
 C          5.8398112091       -1.2542395309       -2.1537712799
 H          6.1405719590       -1.3334992713       -3.2006726899
 H          6.6971377291       -1.5498168407       -1.5477823799
 C          5.5191103592        0.2186000492       -1.8929622504
 H          4.6071651392        0.4950806291       -2.4283619505
 H          6.3335862792        0.8216346490       -2.3033653407
 C          5.3535655093        0.6145588998       -0.4203691206
 H          6.2158175094        0.2677141999        0.1527271295
 H          5.3261420094        1.7071595398       -0.3729989410
 H          5.6438402091       -3.7081920404       -0.6950586990
 H          3.8854272691       -3.6455985002       -0.5208887689
 H          5.9379140093       -1.7435518499        0.6796226402
 H          4.8164848993       -2.8290221395        1.5221373607
 O          2.7603517293       -1.5142134495        1.2843971704
 C          1.6743986194       -0.6631449994        1.3952809402
 O          0.6837547094       -1.1754388991        1.9518845905
 O          3.1046152394        2.2496993600       -0.2288607610
 C          0.5358928495        1.4981210106        1.0877687195
 C         -0.3621172406        1.4840723602       -0.1280906304
 C          0.1527286493        1.5652965897       -1.4165811605
 C         -0.6859372808        1.5250474693       -2.5164103904
 C         -2.0554708108        1.4158023495       -2.3543427203
 C         -2.5825790807        1.3569898100       -1.0721192502
 C         -1.7383831406        1.3894024103        0.0307466197
 H         -2.1572060305        1.3217755307        1.0256808898
 N         -3.9844158707        1.2438096601       -0.9235913500
 S         -4.6374118708       -0.2681706300       -1.2428900494
 O         -4.0579787509       -0.7693896204       -2.4614372893
 O         -6.0719447408       -0.1003114299       -1.2269918094
 C         -4.1355249007       -1.2511528295        0.1582631209
 C         -5.0464274607       -1.5012651991        1.1660031810
 C         -4.6194783806       -2.1673073187        2.3034187013
 C         -3.2897117406       -2.5426255487        2.4246589913
 C         -2.3843653107       -2.2790804491        1.4074968811
 C         -2.8121376107       -1.6344781195        0.2571814809
 H         -2.1336333008       -1.4210597299       -0.5536768692
 H         -1.3416548907       -2.5326272691        1.5180259311
 H         -2.9492766806       -3.0398095584        3.3193708414
 H         -5.3186649106       -2.3787907283        3.0965384614
 H         -6.0652565607       -1.1735854790        1.0355034110
 H         -4.3208745106        1.5620915005       -0.0249178701
 H         -2.7218038109        1.3630018092       -3.1995555502
 H         -0.2677555609        1.5803666490       -3.5102589305
 H          1.2183228793        1.6651583796       -1.5524918506
 H         -0.0217592005        1.0348481909        1.9136373497
 C          0.8513915296        2.9321684607        1.4723693790
 C         -0.1365971403        3.7116253611        2.2840912687
 C          1.1520648198        3.2600822812        2.9023818088
 H          1.9145728598        3.9948116412        3.1120405185
 H          1.1182942798        2.4508307115        3.6176400391
 H         -0.2639668702        4.7611748910        2.0678760084
 H         -1.0437524503        3.2137511512        2.5911328490
 H          1.4104989996        3.4622562304        0.7127220587
