  62
        -98.93834585
 C         -1.9684018096       -0.8802781598       -0.0009310639
 C         -2.2833955189        0.1108401461        0.9552731702
 C         -2.3588928590        1.4952523907        0.4633994599
 C         -2.1097535731        1.7468555448       -0.8332346990
 C         -2.0712238119        3.0803057131       -1.5380922528
 C         -3.1713510539        4.0964059832       -1.2004897911
 C         -4.5373938632        3.4845670693       -0.8568417311
 H         -5.3053719436        3.9704918129       -1.4613041117
 H         -4.5446732560        2.4231821420       -1.1102493390
 C         -4.9170715959        3.6603477836        0.6154071569
 H         -4.6582592995        4.6751234685        0.9249176553
 H         -5.9998163493        3.5535050619        0.7141840159
 C         -4.2748400576        2.6650539617        1.5809320452
 H         -4.5301071532        2.9692820622        2.5987707215
 H         -4.7012876482        1.6701958036        1.4268797294
 C         -2.7463487814        2.5344576984        1.4760718225
 H         -2.2794067858        3.4937791533        1.2652956146
 H         -2.3700223324        2.1711610498        2.4365956214
 H         -3.2726889799        4.7495530430       -2.0688351081
 H         -2.8446002623        4.7237271213       -0.3723489009
 H         -1.0915224280        3.5291191639       -1.3473284638
 H         -2.1093905239        2.8376746433       -2.6029163919
 O         -1.8099433763        0.7590796537       -1.7235459135
 C         -1.7103374378       -0.5652416228       -1.3340173825
 O         -1.4106852306       -1.3519339530       -2.2534617865
 H          0.4228271969       -0.9356043954        0.8776664984
 C          0.6411861363       -1.9011229330        0.4432661492
 C         -0.3983357674       -2.7778214013        0.1586071840
 C         -0.0889968306       -4.0193936070       -0.3811059031
 C          1.2256394830       -4.3518788970       -0.6605707996
 C          2.2510468296       -3.4559964760       -0.4227441965
 C          1.9531443770       -2.2183710009        0.1377306487
 N          2.9687973409       -1.2858850246        0.4171921049
 S          2.6012623332        0.3554429509        0.2566662729
 O          1.9684011598        0.8094352425        1.4708667707
 O          1.8831661861        0.5988826836       -0.9742653274
 C          4.2480368257        1.0342679319        0.1576974769
 C          4.9583231980        1.2264966407        1.3277828113
 C          6.2509216687        1.7206393438        1.2530662199
 C          6.8091817268        2.0114699602        0.0170008419
 C          6.0836707295        1.8150550682       -1.1484254391
 C          4.7905612218        1.3201032898       -1.0808145684
 H          4.1844958926        1.1584187706       -1.9581052413
 H          6.5183326104        2.0448572401       -2.1078381957
 H          7.8151380985        2.3963095643       -0.0385868749
 H          6.8167255909        1.8773649107        2.1571421613
 H          4.4780982916        0.9943294261        2.2639688074
 H          3.8416787836       -1.5129056364       -0.0404270415
 H          3.2718521477       -3.7076239950       -0.6669652906
 H          1.4520810728       -5.3168992815       -1.0880368119
 H         -0.8780271174       -4.7209623620       -0.5971534370
 C         -1.8071322154       -2.3204613942        0.4493180448
 H         -1.9481300499       -2.3048848678        1.5410322975
 C         -2.8712430105       -3.2018127513       -0.1702574009
 C         -3.3636659856       -4.4187562082        0.5530778007
 C         -4.2428354038       -3.2115721147        0.4331820962
 H         -5.0960806431       -3.2546815497       -0.2268898292
 H         -4.3999391310       -2.6014965385        1.3108752450
 H         -3.6177014941       -5.2941887787       -0.0252645132
 H         -2.9311935655       -4.6350186884        1.5181967772
 H         -2.7987513301       -3.2382515060       -1.2515957199
 O         -2.4820670329       -0.1486274965        2.1743547124
