  62
        -98.93949694
 C         -2.6499340783       -0.8929381709        0.4283873151
 C         -2.6560022507        0.2642242645        1.2456336598
 C         -3.4847937149        1.3792242233        0.7772899318
 C         -4.1721178198        1.2605205181       -0.3734681905
 C         -5.0866448274        2.2961643189       -0.9694433452
 C         -4.3643814846        3.3612560883       -1.8057352670
 C         -3.5511893508        4.3767618483       -1.0022259446
 H         -3.2798362670        5.1827961838       -1.6867914881
 H         -4.1801574095        4.8089638787       -0.2233306298
 C         -2.2696701573        3.8085587855       -0.3764896507
 H         -1.4403060893        4.4955532310       -0.5590378217
 H         -2.0143680505        2.8639070157       -0.8628820075
 C         -2.3477865893        3.5837728208        1.1337125065
 H         -2.4722810845        4.5430947420        1.6407766054
 H         -1.4015208317        3.1481589827        1.4644627571
 C         -3.4801970185        2.6476587167        1.5763768780
 H         -3.3156322969        2.3808454617        2.6231925203
 H         -4.4414464564        3.1538454084        1.4915245161
 H         -5.1261279865        3.9031249459       -2.3710166057
 H         -3.7127424407        2.8582193611       -2.5240072596
 H         -5.6582907651        2.7796407934       -0.1767340537
 H         -5.7797357784        1.7593614559       -1.6206867948
 O         -4.1245548709        0.1403645356       -1.1408605807
 C         -3.3462010460       -0.9511350132       -0.7794925610
 O         -3.3737542042       -1.8856440988       -1.6015241718
 O         -2.0008425053        0.3587918702        2.3190250613
 C         -1.8017831831       -2.0758500384        0.8662495125
 C         -0.5934825931       -2.1610260435       -0.0344280766
 C         -0.4177937359       -3.1477682123       -0.9945531606
 C          0.7032890933       -3.1376336232       -1.8074001252
 C          1.6671918409       -2.1550216079       -1.6790390568
 C          1.5049779912       -1.1669824110       -0.7153067183
 C          0.3825039552       -1.1797431972        0.0990025600
 H          0.2488459557       -0.4101479045        0.8489790722
 N          2.4749769976       -0.1552550509       -0.5819321761
 S          4.0930701290       -0.6433239913       -0.6302380126
 O          4.4930875669       -0.7509535419       -2.0112216622
 O          4.2774503763       -1.8308851622        0.1732971980
 C          4.9062794803        0.7507174667        0.1242377882
 C          5.1480311214        1.8753724302       -0.6419072655
 C          5.7676591339        2.9656672933       -0.0523061954
 C          6.1329183574        2.9137631004        1.2848923931
 C          5.8840562081        1.7778442917        2.0404511182
 C          5.2631072172        0.6842745475        1.4575963570
 H          5.0579299559       -0.2225755154        2.0037534486
 H          6.1713322165        1.7391857970        3.0789156261
 H          6.6174004601        3.7628491809        1.7406221943
 H          5.9651031407        3.8499788059       -0.6364468887
 H          4.8566791420        1.8666806805       -1.6792340948
 H          2.2965093611        0.4353508799        0.2190395416
 H          2.5459623086       -2.1433468827       -2.3037695398
 H          0.8281183586       -3.9078939040       -2.5538118376
 H         -1.1630996856       -3.9160528259       -1.1161514150
 H         -1.4487541415       -1.8180487226        1.8749783463
 C         -2.6045939390       -3.3553168809        0.9474208530
 C         -2.0657902636       -4.5116206791        1.7339033896
 C         -3.2396701782       -3.7363550098        2.2498162582
 H         -4.2141567806       -4.2007080117        2.2304035961
 H         -3.0873430567       -3.0773873161        3.0921579854
 H         -2.2325961301       -5.5110219316        1.3622287622
 H         -1.1133045016       -4.3788622896        2.2246238185
 H         -3.1614063143       -3.5689630047        0.0434081546
