  62
        -98.94521264
 C         -1.8177758376       -1.2717091826       -0.2503037613
 C         -2.8908181230       -0.5914062993        0.3649946444
 C         -3.2211625595        0.7373721634       -0.1767442069
 C         -2.5005475835        1.2206216003       -1.2041291971
 C         -2.6106312983        2.5786462700       -1.8398377160
 C         -1.6201847739        3.5542797084       -1.1795413180
 C         -2.1708491682        4.2977825010        0.0357298352
 H         -1.3440305942        4.8672280660        0.4669095842
 H         -2.9335500637        5.0104489706       -0.2871799816
 C         -2.7607189036        3.3967910543        1.1235363634
 H         -2.1075900217        2.5321808027        1.2625444152
 H         -2.7563136022        3.9551832708        2.0621546111
 C         -4.1968408035        2.9431030808        0.8205153909
 H         -4.8287964893        3.1472003906        1.6874921361
 H         -4.5919476514        3.5439052490        0.0012591098
 C         -4.3635839958        1.4516103756        0.4929982999
 H         -5.2629871058        1.3202272322       -0.1182774603
 H         -4.5313624885        0.8939015609        1.4199364928
 H         -0.7345488391        2.9872556660       -0.8784874089
 H         -1.3050013905        4.2940115974       -1.9187245609
 H         -2.3345855182        2.4568201556       -2.8893106576
 H         -3.6289541017        2.9525416234       -1.7848207859
 O         -1.4926098249        0.5192259825       -1.7879510888
 C         -1.1017558133       -0.7149997220       -1.3085902949
 O         -0.1285690570       -1.2172817331       -1.9052698896
 O         -3.5359577621       -1.0678647160        1.3405903688
 C         -1.3547645383       -2.6032756200        0.3120851951
 C          0.0985855864       -2.5002392227        0.7068852509
 C          1.0303944419       -3.5056155233        0.4811064815
 C          2.3583588268       -3.3238142890        0.8291259567
 C          2.7905741663       -2.1311676449        1.3800098854
 C          1.8628504408       -1.1248424695        1.6211412194
 C          0.5276890611       -1.3296202441        1.3194213459
 H         -0.1787583501       -0.5375671416        1.5209569665
 N          2.2423100455        0.1302142500        2.1449744541
 S          2.0541580234        1.4401581146        1.1106466992
 O          2.5444480625        2.5812991988        1.8543736574
 O          0.6930119547        1.5156484586        0.6512379387
 C          3.1754675293        1.0870558684       -0.2309409862
 C          4.4428901861        1.6370008090       -0.1863733267
 C          5.3539941935        1.3080255578       -1.1761763537
 C          4.9872118727        0.4281002764       -2.1837884556
 C          3.7133304948       -0.1173483703       -2.2112781280
 C          2.7930067124        0.2105232067       -1.2263680309
 H          1.7945757972       -0.1998746397       -1.2367895052
 H          3.4191629011       -0.8012090102       -2.9912687597
 H          5.6965766080        0.1664882713       -2.9530541042
 H          6.3440553309        1.7342906181       -1.1575777380
 H          4.6799604359        2.3181148894        0.6151318431
 H          3.1811962541        0.1453384637        2.5208355023
 H          3.8321442186       -1.9758513887        1.6183174936
 H          3.0705715309       -4.1136883525        0.6457893048
 H          0.7181687923       -4.4299805489        0.0230485847
 H         -1.9552820426       -2.7670800421        1.2196077545
 C         -1.6325123356       -3.7245290393       -0.6677238678
 C         -1.9366724945       -5.1068915987       -0.1743194593
 C         -3.0256822370       -4.2667935344       -0.7684764855
 H         -3.4085810410       -4.5273204731       -1.7437281602
 H         -3.7682594730       -3.8445324802       -0.1071521132
 H         -1.5744179751       -5.9492357662       -0.7441706327
 H         -1.9478021532       -5.2661743120        0.8933258142
 H         -1.0686564243       -3.6187634871       -1.5878658406
