  62
        -98.94568484
 C         -2.5435087001       -0.6100923650        0.1693721724
 C         -1.9880795154        0.1955879758       -0.8540742172
 C         -2.2086884564        1.6400099707       -0.7124967854
 C         -2.9229882461        2.1114745537        0.3256067758
 C         -3.2366278561        3.5577742914        0.5982166210
 C         -2.1246049438        4.3036086497        1.3493540563
 C         -0.8686694420        4.6003369545        0.5284047803
 H         -1.1522049257        5.1014989574       -0.3973262373
 H         -0.2663245857        5.3021536593        1.1084222477
 C         -0.0154936963        3.3647592456        0.2064357186
 H         -0.3009132795        2.5437581949        0.8687445400
 H          1.0361845982        3.5816339347        0.4053532975
 C         -0.1135057605        2.8882246114       -1.2425405870
 H          0.2926502517        3.6534697892       -1.9064979267
 H          0.4980219095        1.9886529026       -1.3486981359
 C         -1.5383177782        2.5478435934       -1.6982451210
 H         -2.1200805623        3.4580104785       -1.8399291242
 H         -1.4758833837        2.0166086439       -2.6506655396
 H         -1.8527313434        3.7241950794        2.2350371543
 H         -2.5426413115        5.2533504132        1.6909065470
 H         -3.4514520509        4.0701360238       -0.3396926640
 H         -4.1370932161        3.5706776626        1.2161153977
 O         -3.4669473003        1.2986326416        1.2714305810
 C         -3.2670616373       -0.0731436028        1.2328197291
 O         -3.7728157154       -0.6944330583        2.1905452115
 H         -0.3522079346       -0.9590287072        1.4838334887
 C          0.0269342659       -1.7327333690        0.8266869045
 C         -0.8674551608       -2.4413765839        0.0337783806
 C         -0.3682320596       -3.4356326652       -0.7973594994
 C          0.9896453894       -3.7024323860       -0.8325096393
 C          1.8763984616       -2.9933630654       -0.0437683686
 C          1.3894677667       -1.9932492406        0.7901455654
 N          2.2587674874       -1.2776120216        1.6290662473
 S          3.7623345593       -0.7266684757        1.1623642623
 O          4.5713859847       -1.8452932696        0.7478154278
 O          4.2418690312        0.0251426966        2.2991273844
 C          3.5204226197        0.3792905972       -0.2166387603
 C          3.2438861775       -0.1394576091       -1.4661938887
 C          3.0707806075        0.7336184476       -2.5284954090
 C          3.1849325732        2.1005859127       -2.3278645887
 C          3.4645606684        2.6056600001       -1.0673666800
 C          3.6277941243        1.7388572199        0.0008529474
 H          3.8510092957        2.0861894121        0.9968780317
 H          3.5550295142        3.6692204912       -0.9150425926
 H          3.0543211960        2.7751675954       -3.1590908210
 H          2.8457649193        0.3424534334       -3.5075905761
 H          3.1711658713       -1.2066673974       -1.5941875785
 H          1.7991338392       -0.5928400320        2.2096208276
 H          2.9340657141       -3.2015777589       -0.0569227644
 H          1.3643421925       -4.4784462036       -1.4828656175
 H         -1.0412531711       -4.0017321548       -1.4198213850
 C         -2.3382924298       -2.1126268696        0.1319575666
 H         -2.7104408955       -2.4984683204        1.0928957136
 C         -3.1650573291       -2.7161764178       -0.9856112811
 C         -3.7202275333       -4.1019987137       -0.8566816987
 C         -4.6333200334       -2.9174032805       -0.7661786610
 H         -5.3100103294       -2.7208964647       -1.5842166508
 H         -5.0296959960       -2.6461452960        0.2018156152
 H         -3.7743742455       -4.7210204417       -1.7396192103
 H         -3.5058431698       -4.6453909516        0.0512659100
 H         -2.8473376363       -2.3783565067       -1.9654482906
 O         -1.3372986941       -0.2630043873       -1.8273693609
