  62
        -98.93840632
 C         -2.5386961404       -0.1143219450        0.0837241911
 C         -2.3372049494       -1.1702817277       -0.8307181578
 C         -1.7170021224       -2.4022097740       -0.3090560048
 C         -1.3940920607       -2.4587807450        0.9967411669
 C         -0.6931027326       -3.5637001348        1.7425140915
 C          0.8148860217       -3.5856133845        1.4582767779
 C          1.1865679439       -3.5368344129       -0.0209922104
 H          0.8466612930       -2.5873704626       -0.4411796607
 H          2.2786336867       -3.5312653468       -0.0849878716
 C          0.6728586174       -4.7000947462       -0.8676287041
 H          1.1333561354       -4.6021969721       -1.8540174479
 H          1.0187742626       -5.6391678948       -0.4301600978
 C         -0.8444340954       -4.7790072630       -1.0642794454
 H         -1.3342853126       -5.2429965987       -0.2120600442
 H         -1.0270793705       -5.4334970517       -1.9214829654
 C         -1.5113750511       -3.4450653487       -1.3814744679
 H         -2.5088828378       -3.6391244632       -1.7943957630
 H         -0.9584295980       -2.9474527467       -2.1874187947
 H          1.2389960206       -4.4815139770        1.9163079441
 H          1.2609621983       -2.7078113542        1.9330604761
 H         -0.8422525325       -3.3640773552        2.8061065896
 H         -1.1426459187       -4.5257233529        1.5158916160
 O         -1.6513582490       -1.4301615372        1.8543862675
 C         -2.1741196686       -0.2272060553        1.4248962183
 O         -2.2858074609        0.6380065722        2.3156572634
 O         -2.6475414825       -1.0861788278       -2.0531874052
 C         -3.0259263187        1.2259729828       -0.4320666820
 C         -1.9365383433        2.2588614117       -0.2572784626
 C         -2.1861678735        3.5955147712        0.0238602663
 C         -1.1364085536        4.4893291599        0.1622973946
 C          0.1763757097        4.0719539251        0.0491237357
 C          0.4366951932        2.7329250967       -0.2274565890
 C         -0.6159890705        1.8548769122       -0.4104590638
 H         -0.3996752801        0.8261753531       -0.6598141504
 N          1.7593409353        2.2546474484       -0.2746927997
 S          2.0865521294        0.6137520780       -0.3623302114
 O          1.7916882663        0.0836830543       -1.6786111034
 O          1.4585656660       -0.0376255522        0.7575126731
 C          3.8530381354        0.6596494123       -0.1250614716
 C          4.3394033626        0.7992435367        1.1608757209
 C          5.7094635389        0.8676728177        1.3566546674
 C          6.5667841361        0.7973312401        0.2683742865
 C          6.0648662490        0.6543775563       -1.0162094907
 C          4.6950466135        0.5858040353       -1.2180568192
 H          4.2593086300        0.4649984072       -2.1968129115
 H          6.7334943308        0.5960213481       -1.8598827719
 H          7.6327738178        0.8508496463        0.4233760821
 H          6.1025065027        0.9753435341        2.3547442715
 H          3.6334606242        0.8410485643        1.9743491375
 H          2.4143978388        2.8354080664       -0.7753939021
 H          0.9927730541        4.7643361903        0.1798056295
 H         -1.3463447580        5.5265673136        0.3751696163
 H         -3.2022725713        3.9373817647        0.1365120316
 H         -3.1901974771        1.0819490616       -1.5117076139
 C         -4.3366284537        1.6248624217        0.2128494674
 C         -5.3489563229        2.4210537572       -0.5539889470
 C         -5.6010108970        0.9738966646       -0.2597774422
 H         -6.3520035416        0.7154654350        0.4713514293
 H         -5.5168847988        0.2634870534       -1.0694535037
 H         -5.9329123424        3.1583012712       -0.0240102169
 H         -5.1062035677        2.6935689500       -1.5701137434
 H         -4.2344623948        1.8082684963        1.2763423486
