  62
        -98.92975483
 C          2.5167449077        1.1446947058       -0.3424069094
 C          2.5159556478       -0.2048359759        0.0812142050
 C          3.8155174445       -0.7694220362        0.5093198025
 C          4.9041211835        0.0206555255        0.5083987370
 C          6.3241089483       -0.3391730957        0.8568596825
 C          7.0198981026       -1.1467434687       -0.2503489815
 C          6.1796629334       -2.2717867337       -0.8485364355
 H          5.2597445069       -1.8523263790       -1.2597328537
 H          6.7425259382       -2.6986315869       -1.6828510272
 C          5.8349721039       -3.4072862879        0.1122451337
 H          5.3250001839       -4.1797281436       -0.4690389542
 H          6.7591243448       -3.8408062182        0.5008020231
 C          4.9371756111       -3.0348837186        1.2945466390
 H          4.5717719426       -3.9684940016        1.7322586434
 H          5.5013553768       -2.5303308991        2.0743668113
 C          3.7040131556       -2.2168462886        0.9244213723
 H          3.1666084738       -2.7249374313        0.1155057662
 H          3.0114803095       -2.2231655108        1.7750648119
 H          7.9472545139       -1.5565016533        0.1535088426
 H          7.2791121929       -0.4583715269       -1.0586104374
 H          6.8612253934        0.6025903376        0.9902277224
 H          6.3536240368       -0.8728525586        1.8021217596
 O          4.8484217096        1.3299875504        0.1280320740
 C          3.6751681389        1.9231974041       -0.2904271407
 O          3.7850782153        3.1320390407       -0.5798766714
 H         -1.0915285554        0.4301659219       -1.1695435363
 C         -1.0002593345        0.8384072301       -0.1749790477
 C          0.1281546364        1.5638191971        0.1698611302
 C          0.2327479320        2.0554796887        1.4681745352
 C         -0.7620484708        1.8174187172        2.3966445740
 C         -1.8822568645        1.0815813812        2.0524721293
 C         -1.9960619186        0.5854113938        0.7613396914
 N         -3.1154131586       -0.1906667338        0.4098425280
 S         -4.6330702226        0.3360002273        0.9248271844
 O         -4.7994496830        1.7423488716        0.6291897216
 O         -4.8086915607       -0.0390612055        2.3056660706
 C         -5.6993495755       -0.6501547432       -0.1074141510
 C         -6.2703903493       -0.0868140838       -1.2325476560
 C         -7.0793336907       -0.8727778540       -2.0383557964
 C         -7.2989835540       -2.2016800976       -1.7087389490
 C         -6.7181823557       -2.7530103575       -0.5760410919
 C         -5.9097641411       -1.9726112089        0.2348365017
 H         -5.4451010387       -2.3552983951        1.1284955326
 H         -6.8931549269       -3.7861660992       -0.3225779446
 H         -7.9288287215       -2.8111659442       -2.3373614455
 H         -7.5344643445       -0.4466581078       -2.9179450864
 H         -6.0780308992        0.9525592394       -1.4454387666
 H         -3.1231927823       -0.4234814788       -0.5737554207
 H         -2.6660105433        0.8870618921        2.7667689678
 H         -0.6659600124        2.2052762673        3.4000925861
 H          1.1122987801        2.6237477700        1.7414843383
 C          1.2499329624        1.8492490714       -0.7981665979
 H          1.4860578713        2.9238217831       -0.7246806106
 C          0.8772637974        1.5909629763       -2.2503672991
 C          1.9395528092        1.3615720302       -3.2828323711
 C          1.0168609712        0.2467508858       -2.8968872080
 H          0.2629566803       -0.0593315862       -3.6078492162
 H          1.4033467889       -0.5601722804       -2.2952925500
 H          1.8198633058        1.8195510977       -4.2531584597
 H          2.9642454451        1.3220693444       -2.9425700253
 H          0.0299521144        2.1959826327       -2.5598383180
 O          1.4906822679       -0.9336661856        0.1003175103
