  62
        -98.94447439
 C         -1.8359143668        0.0170932382        0.4198645189
 C         -2.9783517774       -0.3884672743        1.1507955829
 C         -4.2651667618        0.1115735575        0.6549973323
 C         -4.2964024278        0.9243868010       -0.4168618982
 C         -5.5286215635        1.5352160125       -1.0276072336
 C         -6.2604926695        0.6121159559       -2.0115962504
 C         -7.0192696553       -0.5511015968       -1.3713917889
 H         -7.6725213142       -0.1686982482       -0.5864940797
 H         -7.6576756916       -0.9812823357       -2.1456541888
 C         -6.1198554279       -1.6574089133       -0.8024974900
 H         -6.5021222489       -2.6326299559       -1.1123186232
 H         -5.1149970828       -1.5605685630       -1.2200783158
 C         -6.0219934120       -1.6728316704        0.7229526545
 H         -7.0007838037       -1.9005287476        1.1507932214
 H         -5.3332352614       -2.4699529614        1.0137285465
 C         -5.5142089978       -0.3611649974        1.3358735325
 H         -5.2712135851       -0.5443632320        2.3853833221
 H         -6.2890974279        0.4032676407        1.2841488417
 H         -6.9768923175        1.2260570232       -2.5623857142
 H         -5.5352379618        0.2232952379       -2.7302061383
 H         -6.2145089983        1.8450295723       -0.2386139129
 H         -5.1978197561        2.4237087311       -1.5698833804
 O         -3.1722502308        1.3120012110       -1.0773015040
 C         -1.9186927402        0.8573922684       -0.6901293498
 O         -0.9821038827        1.2727676669       -1.3990289187
 O         -2.9233592904       -1.1248159154        2.1718569517
 C         -0.4717402426       -0.4826799209        0.8584334753
 C          0.4536210507        0.6763215284        1.1304877204
 C          0.0045166041        1.7190332327        1.9374699488
 C          0.8151060123        2.8040264722        2.2055152778
 C          2.0925423919        2.8719272052        1.6777948430
 C          2.5579549575        1.8296946004        0.8853733048
 C          1.7437183438        0.7347051777        0.6264973294
 H          2.1194241249       -0.0560022047       -0.0005032737
 N          3.8666616671        1.8532256210        0.3903459326
 S          4.3359284478        1.0436686829       -0.9903403649
 O          5.6309442912        1.6130870142       -1.3020153428
 O          3.3500635939        1.1109346398       -2.0426080333
 C          4.5675321911       -0.6417233763       -0.4629972484
 C          4.2617263849       -1.6619385142       -1.3416003536
 C          4.4890532307       -2.9735810344       -0.9541742651
 C          5.0145869009       -3.2409400544        0.3004405703
 C          5.3167962794       -2.2049124524        1.1708615192
 C          5.0972974990       -0.8914885818        0.7875079999
 H          5.3219916507       -0.0636083698        1.4386795227
 H          5.7237456741       -2.4166213002        2.1464464602
 H          5.1873521410       -4.2623611319        0.6004804005
 H          4.2550062270       -3.7798505866       -1.6314002715
 H          3.8417037207       -1.4090263769       -2.3026189966
 H          4.3684623985        2.7185593121        0.5205686495
 H          2.7237486837        3.7244659328        1.8767218802
 H          0.4491223389        3.6086973217        2.8254694266
 H         -0.9971100648        1.6707596600        2.3427577454
 H         -0.6492097459       -1.0101779932        1.8080047456
 C          0.0756709934       -1.4719580640       -0.1489004126
 C          0.9801279659       -2.5795184768        0.3001452215
 C         -0.4256779380       -2.8837280842       -0.1198579982
 H         -0.5879026937       -3.3921163365       -1.0584666560
 H         -1.1471255981       -3.1356810910        0.6436415028
 H          1.7883979063       -2.8801449987       -0.3489788623
 H          1.2173620350       -2.6326845080        1.3517235217
 H          0.2543094640       -1.0221160459       -1.1202906015
