  62
        -98.94597198
 C         -1.1920999896       -0.9579643903       -0.5005112782
 C         -2.2997828408       -1.2333857284        0.3424977958
 C         -3.0777401967       -0.0788906854        0.8063357263
 C         -2.6833422255        1.1582857233        0.4555327902
 C         -3.3986248857        2.4248256534        0.8261125342
 C         -4.4299474579        2.8162886666       -0.2415606895
 C         -5.3534762080        1.6705968508       -0.6553706215
 H         -6.0570284571        2.0688130818       -1.3895688055
 H         -4.7627863652        0.9018481315       -1.1585185887
 C         -6.1311168579        1.0322502017        0.5039417265
 H         -7.1706177240        0.8986561151        0.1972066291
 H         -6.1307712887        1.7026318959        1.3641744487
 C         -5.6138572532       -0.3418341922        0.9339018130
 H         -6.3561480048       -0.7918746358        1.5985061476
 H         -5.5229926781       -0.9895665935        0.0584150324
 C         -4.2721979388       -0.3482438967        1.6779203496
 H         -4.3081803460        0.3582098904        2.5102354830
 H         -4.1227134733       -1.3516833581        2.0875539472
 H         -3.8950070393        3.1625789708       -1.1287194204
 H         -5.0256427056        3.6464112780        0.1425711371
 H         -3.8885297128        2.2886087776        1.7885246505
 H         -2.6590190994        3.2222264703        0.9183521503
 O         -1.6032099141        1.3902601513       -0.3280101201
 C         -0.8308812637        0.3497306814       -0.8277950970
 O          0.1148548229        0.7397040483       -1.5397013306
 H          1.5424371293       -0.4165979545       -0.2061838679
 C          1.6599383066       -1.3759649479        0.2703385454
 C          0.7687312200       -2.4003421931       -0.0141116749
 C          0.9467599325       -3.6317094860        0.6051376944
 C          1.9842361212       -3.8242784356        1.5004092242
 C          2.8438717189       -2.7872153281        1.8149221650
 C          2.6723870804       -1.5521068855        1.2002487780
 N          3.5107809548       -0.4671063702        1.4954729053
 S          2.8498935454        1.0728451878        1.5702498452
 O          3.7688233717        1.8108988138        2.4163440982
 O          1.4774013083        1.0450235440        2.0238379860
 C          2.9789645582        1.7210717238       -0.0805333973
 C          3.9992857593        1.2860858014       -0.9021596063
 C          4.1219936044        1.8424824611       -2.1647447001
 C          3.2335008493        2.8230922513       -2.5781820889
 C          2.2186314150        3.2518522639       -1.7385463002
 C          2.0874173635        2.6962936303       -0.4763193676
 H          1.2983271690        2.9872330267        0.1993152901
 H          1.5204374355        4.0066685546       -2.0631676939
 H          3.3281265854        3.2526308629       -3.5632685313
 H          4.9069622626        1.5068364281       -2.8234914840
 H          4.6673050270        0.5169682764       -0.5513627290
 H          4.1757011354       -0.6254194546        2.2388412121
 H          3.6357338843       -2.9266827359        2.5350626488
 H          2.1125974867       -4.7852347616        1.9750577556
 H          0.2537602375       -4.4336121962        0.3976690464
 C         -0.3826444492       -2.1590067803       -0.9617427364
 H         -1.0643443410       -3.0171449382       -0.8823090246
 C          0.1126225678       -2.0684562831       -2.3913666112
 C          0.4355588252       -3.3317077452       -3.1296438435
 C         -0.7736398164       -2.5308211063       -3.5071865703
 H         -0.7624084509       -1.9782029599       -4.4343659523
 H         -1.7463054253       -2.9207832658       -3.2440052167
 H          1.2812864520       -3.3326420076       -3.7995471405
 H          0.2813056171       -4.2673861416       -2.6140436912
 H          0.7341834044       -1.2021875601       -2.5751420451
 O         -2.6279306822       -2.4023082682        0.6853237959
