  62
        -98.94541292
 C          2.5928635719        0.0402511654       -0.5024626828
 C          2.4894834746        0.7607351915        0.7119430294
 C          2.0754806802        2.1625784829        0.5878831639
 C          1.7985385584        2.6733373308       -0.6252443973
 C          1.3274359777        4.0735868615       -0.9090082434
 C         -0.1836531685        4.2605694255       -0.7112422958
 C         -0.6481115677        4.3241740901        0.7447910069
 H         -0.0301533095        5.0356925671        1.2941064522
 H         -1.6676087500        4.7148542927        0.7354818716
 C         -0.6501832195        2.9698890343        1.4675680149
 H         -0.6432661296        2.1633100731        0.7303967545
 H         -1.5761726374        2.8684513461        2.0394411559
 C          0.5025818380        2.7671396345        2.4513114996
 H          0.4402013838        1.7487148297        2.8435242224
 H          0.3943682281        3.4607743718        3.2889876757
 C          1.8997765596        2.9548214037        1.8485016632
 H          2.0904057853        4.0113672652        1.6608005504
 H          2.6330434474        2.5882547415        2.5715976319
 H         -0.4633816593        5.1955817212       -1.2028782188
 H         -0.7045440000        3.4444695338       -1.2190599341
 H          1.8711313536        4.7816630460       -0.2826194416
 H          1.5676636683        4.2769128786       -1.9548354398
 O          1.9309252405        1.9536820696       -1.7721941306
 C          2.2972620219        0.6187978543       -1.7354492294
 O          2.3362600689        0.0640341016       -2.8554483674
 H          0.2939203677       -0.9079773795       -0.5965087301
 C          0.4835540304       -1.7011861632        0.1114793131
 C          1.7869944725       -2.1391740929        0.3087653489
 C          2.0079179386       -3.1793563989        1.2011143512
 C          0.9458845757       -3.7445556099        1.8876970170
 C         -0.3453779651       -3.2844262399        1.7094111518
 C         -0.5766495391       -2.2413451915        0.8172233284
 N         -1.8643629779       -1.7020225854        0.6615548456
 S         -2.2746787813       -0.8148025502       -0.7084763587
 O         -2.1010928111       -1.6227049091       -1.8973309702
 O         -1.5906845934        0.4527041921       -0.6859400520
 C         -4.0087430400       -0.5620445999       -0.3843752888
 C         -4.3755831185        0.4740998279        0.4532700424
 C         -5.7183658720        0.6601107504        0.7406052113
 C         -6.6665118665       -0.1890140469        0.1891243189
 C         -6.2836178083       -1.2226346953       -0.6523785713
 C         -4.9418650054       -1.4146682290       -0.9429612913
 H         -4.5979193378       -2.1979742497       -1.5991782534
 H         -7.0233406219       -1.8783259769       -1.0825278922
 H         -7.7109858006       -0.0420061339        0.4142259385
 H         -6.0196496825        1.4647423375        1.3916823147
 H         -3.6020956569        1.1118099474        0.8492620298
 H         -2.6035846353       -2.3326853994        0.9381494011
 H         -1.1665038567       -3.7156319085        2.2609920508
 H          1.1292578888       -4.5528935665        2.5793118648
 H          3.0095113968       -3.5426221150        1.3639634465
 C          2.8846241066       -1.4490774171       -0.4690623535
 H          2.8319717984       -1.7950161596       -1.5129303406
 C          4.2721769489       -1.7231146937        0.0710913572
 C          5.0415395161       -2.9223047175       -0.3930194421
 C          5.4487184934       -1.5515383186       -0.8404182513
 H          6.3541646482       -1.1224773326       -0.4386858088
 H          5.2441767436       -1.2628260724       -1.8615743541
 H          4.5701116741       -3.5699009863       -1.1170453465
 H          5.6732986684       -3.4358289282        0.3159544194
 H          4.3850929934       -1.4053173561        1.1009083126
 O          2.7254427945        0.2607301054        1.8430548530
