  62
        -98.94593917
 C         -1.3999273290       -1.6343882212       -0.3960289600
 C         -1.2737392492       -0.3243436913       -0.9225221103
 C         -2.4449168094        0.5471636284       -0.7543732209
 C         -3.5430221995        0.0956634983       -0.1240132611
 C         -4.8315335298        0.8487064580        0.0716267483
 C         -4.8417802004        1.7872560983        1.2853001781
 C         -3.9898449407        3.0480448585        1.1368003580
 H         -4.2482001905        3.5543092982        0.2062179978
 H         -4.2574390411        3.7163407186        1.9576559277
 C         -2.4776317206        2.7911432589        1.1835322585
 H         -2.2807502205        1.8065723991        1.6149213288
 H         -1.9993360510        3.5177666292        1.8449314585
 C         -1.7665599102        2.8787872887       -0.1665336613
 H         -0.7232790102        2.5986509290       -0.0020901509
 H         -1.7947865204        3.9080581486       -0.5323149716
 C         -2.3381406297        1.9572081783       -1.2503983812
 H         -3.3101759197        2.3216106679       -1.5827088716
 H         -1.6492581794        1.9604978682       -2.0986872610
 H         -5.8777643105        2.0904898681        1.4539961377
 H         -4.5109174005        1.2281242486        2.1636582983
 H         -5.0595195897        1.4182040577       -0.8300038819
 H         -5.6099604496        0.0957883878        0.2138534283
 O         -3.6176488094       -1.1595860416        0.3929197592
 C         -2.5547728091       -2.0386578214        0.2811648198
 O         -2.7619360090       -3.1518900713        0.8078925900
 O         -0.2590708791        0.1163760588       -1.5250267301
 C         -0.3192168287       -2.6987550510       -0.5131744694
 C          0.7645298410       -2.5217250704        0.5225993809
 C          1.0957139010       -3.5507244301        1.3965278613
 C          2.1054808806       -3.3830723796        2.3276888716
 C          2.7943908103       -2.1863240694        2.4115199814
 C          2.4676985603       -1.1508773097        1.5431703811
 C          1.4671482906       -1.3282644202        0.5999172008
 H          1.2120726506       -0.5201028505       -0.0645599495
 N          3.1559920800        0.0711814705        1.5796156410
 S          2.3307383297        1.5071898002        1.3231887203
 O          3.1156487292        2.5064635206        2.0229881403
 O          0.9507616096        1.4055720099        1.7384458699
 C          2.4488498601        1.8432218398       -0.4222159197
 C          3.0891552106        0.9818590197       -1.2874458093
 C          3.1431418609        1.3079656994       -2.6337788394
 C          2.5642609908        2.4809059191       -3.0893623898
 C          1.9372225403        3.3433944392       -2.2042441803
 C          1.8821985099        3.0244944795       -0.8579567302
 H          1.4074242995        3.6695662496       -0.1350809505
 H          1.4869737801        4.2576282989       -2.5568767606
 H          2.5998149210        2.7243121388       -4.1397223599
 H          3.6313558813        0.6381946393       -3.3237751190
 H          3.5246368807        0.0699441699       -0.9132971989
 H          3.8325700197        0.1640027708        2.3228482012
 H          3.5763072600       -2.0513536490        3.1435024417
 H          2.3534083206       -4.1889494494        3.0018687118
 H          0.5466108612       -4.4800077703        1.3522433714
 H         -0.8227658385       -3.6537420211       -0.3094832893
 C          0.2924350818       -2.7645645912       -1.9009562192
 C          0.9549986122       -4.0320190811       -2.3456575786
 C         -0.3539609877       -3.6186081916       -2.9477260491
 H         -0.3675052375       -3.2621638819       -3.9665900192
 H         -1.2415768576       -4.1670718518       -2.6664022293
 H          1.8442870924       -3.9622503511       -2.9527158384
 H          0.9550490323       -4.8652650310       -1.6593144584
 H          0.7257237616       -1.8258669812       -2.2197063893
