  62
        -98.94622084
 C         -2.8332844338       -0.8789013938        0.2050523311
 C         -2.4739793285       -0.1535075061       -0.9584597637
 C         -2.8363996404        1.2690866235       -0.9520242715
 C         -3.5564771093        1.7726231841        0.0668929523
 C         -3.9713415853        3.2091569763        0.2312897776
 C         -2.9010129230        4.0739869049        0.9128836366
 C         -1.6716788496        4.3853722566        0.0568801653
 H         -1.9918755760        4.8103886876       -0.8948670795
 H         -1.0993482062        5.1529684313        0.5814921798
 C         -0.7543454050        3.1812911310       -0.2048673803
 H          0.2901246022        3.4588709643       -0.0367710420
 H         -0.9834133372        2.3843760202        0.5086071019
 C         -0.8456255486        2.6142215968       -1.6220891789
 H         -0.5128982382        3.3704682298       -2.3367532119
 H         -0.1552388012        1.7681899861       -1.6934467869
 C         -2.2504369172        2.1380111773       -2.0224516133
 H         -2.1633145760        1.5398142776       -2.9323350215
 H         -2.8946157418        2.9937970928       -2.2226654698
 H         -3.3710885412        5.0200629784        1.1903209064
 H         -2.5857424217        3.5769041801        1.8335873101
 H         -4.8647100276        3.2092074352        0.8592334375
 H         -4.2248607720        3.6353274894       -0.7388846059
 O         -3.9958746688        1.0067639614        1.1016648845
 C         -3.5828363337       -0.3123761033        1.2335034292
 O         -3.9442348347       -0.8616585193        2.2944493923
 O         -1.8596207255       -0.6571135755       -1.9330821299
 C         -2.3007000657       -2.2872546148        0.3948615189
 C         -0.7957600154       -2.2614710466        0.2493306613
 C         -0.0756641821       -3.2444154504       -0.4164960047
 C          1.2969103440       -3.1323181587       -0.5615133301
 C          1.9801993895       -2.0421922367       -0.0549092395
 C          1.2713551248       -1.0586492458        0.6219868214
 C         -0.0975857121       -1.1870712541        0.7868603390
 H         -0.6421651173       -0.4130703275        1.3161661579
 N          1.9512853142        0.0668542082        1.1291757197
 S          2.8030652469        0.9912633206        0.0065590579
 O          2.8115530520        2.3335600811        0.5468236515
 O          2.2757104206        0.8327103154       -1.3271989591
 C          4.4490244044        0.3183015871        0.0965302117
 C          5.1023601010        0.3570762616        1.3128012972
 C          6.3817458593       -0.1674305841        1.4020836134
 C          6.9831799577       -0.7173938384        0.2796288633
 C          6.3150846034       -0.7461303721       -0.9349098541
 C          5.0344721707       -0.2235928285       -1.0305985950
 H          4.4736096852       -0.2277374923       -1.9517649867
 H          6.7842789765       -1.1734201040       -1.8065394405
 H          7.9788561712       -1.1256671281        0.3517758826
 H          6.9045985810       -0.1466684939        2.3446187709
 H          4.5999647309        0.7971310813        2.1580000904
 H          1.3556878434        0.6725617685        1.6764919740
 H          3.0452068534       -1.9391213899       -0.1857135617
 H          1.8407833013       -3.9011372433       -1.0888181214
 H         -0.5922074790       -4.0914391951       -0.8376011703
 H         -2.5490593613       -2.5765267308        1.4268229095
 C         -2.9775019081       -3.2498316254       -0.5586252169
 C         -3.1855709663       -4.6821355900       -0.1700356158
 C         -4.3524547786       -3.7440506193       -0.2269274537
 H         -5.0679579140       -3.8540152675       -1.0278378122
 H         -4.7869297142       -3.4059624724        0.7027985784
 H         -3.1036977437       -5.4404075840       -0.9341239471
 H         -2.8351896728       -4.9934642513        0.8024494766
 H         -2.7621645707       -3.0227622065       -1.5964872388
