  62
        -98.94611934
 C          1.9067893111        1.2828681496        0.3140979792
 C          1.6725289509       -0.0775961906        0.0045915202
 C          2.7886585808       -0.9929434205        0.2722035506
 C          3.9299292710       -0.5189869902        0.8043337300
 C          5.1470919510       -1.3312208101        1.1545869202
 C          6.0922858607       -1.5806243010       -0.0286779998
 C          5.5847422903       -2.5820939417       -1.0669294190
 H          6.4277605002       -2.8239060922       -1.7172463690
 H          5.2857187404       -3.5033406813       -0.5660275383
 C          4.4270915002       -2.0653119222       -1.9326715991
 H          4.3724406303       -0.9767412121       -1.8568401198
 H          4.6222594499       -2.3022288430       -2.9810897490
 C          3.0608420902       -2.6549057218       -1.5824529183
 H          2.3123492501       -2.1941393722       -2.2324999285
 H          3.0635142000       -3.7287976020       -1.7821143476
 C          2.6290527206       -2.4286756408       -0.1275726484
 H          3.1975986507       -3.0766136403        0.5390905219
 H          1.5687865106       -2.6795301806       -0.0447115879
 H          6.3021041107       -0.6255771214       -0.5158794206
 H          7.0324610408       -1.9585688808        0.3795134902
 H          5.6898690913       -0.7657946796        1.9150659597
 H          4.8403165110       -2.2854690998        1.5835411610
 O          4.1042164912        0.7935933800        1.1144597590
 C          3.1106095812        1.7258649299        0.8621814586
 O          3.4103921214        2.8957693601        1.1753459277
 O          0.5894240507       -0.5105922908       -0.4664117292
 C          0.8275079411        2.3160827795        0.0427801588
 C         -0.4320832788        1.9449664002        0.7863068093
 C         -0.3637146784        1.7804837311        2.1684005094
 C         -1.4853650083        1.4381184218        2.8974001100
 C         -2.6993480085        1.2405954014        2.2614804304
 C         -2.7794366988        1.4049619805        0.8848853403
 C         -1.6533547389        1.7679767399        0.1564855898
 H         -1.7489486192        1.8818200591       -0.9098046803
 N         -4.0027491190        1.2295367001        0.2088300907
 S         -4.1081266394        0.0842957293       -1.0104438084
 O         -3.1830169096        0.4019075085       -2.0655239189
 O         -5.5091474895        0.0668147792       -1.3735292481
 C         -3.6876970293       -1.4557301502       -0.2131410575
 C         -4.7182496693       -2.2764186798        0.2050543534
 C         -4.4157507793       -3.4433205294        0.8868408541
 C         -3.0919039092       -3.7631122093        1.1489393240
 C         -2.0716690292       -2.9257064897        0.7264902632
 C         -2.3642550693       -1.7580871002        0.0373248224
 H         -1.5781806893       -1.1012768805       -0.3010515782
 H         -1.0397314292       -3.1660700397        0.9287837331
 H         -2.8530182692       -4.6689953090        1.6837332346
 H         -5.2091917792       -4.0961890891        1.2134256148
 H         -5.7317310393       -1.9877975899       -0.0230002566
 H         -4.7934149688        1.1186656206        0.8289014210
 H         -3.5770177783        0.9652438019        2.8266991308
 H         -1.4145927480        1.3163700725        3.9676744900
 H          0.5883147217        1.9256892014        2.6615080091
 H          1.2020262213        3.2637194998        0.4566105780
 C          0.6282238507        2.4835902685       -1.4488828713
 C          0.1116626407        3.7791419382       -1.9955700521
 C          1.5449987706        3.3949080379       -2.2054809322
 H          1.8625673504        3.1025436572       -3.1952718121
 H          2.3038151708        3.9159150782       -1.6393477727
 H         -0.5586968595        3.7488586577       -2.8414843219
 H         -0.1033245090        4.5685893787       -1.2912152526
 H          0.3207674605        1.5670796482       -1.9404279706
