  62
        -98.94246391
 C          1.1378160663        1.3428459416        0.4240774147
 C          1.5174303767        0.6570222797       -0.7553395152
 C          2.4815547554       -0.4408516831       -0.5760943846
 C          2.8921569909       -0.7709493978        0.6606362970
 C          3.9106599320       -1.8273508233        0.9749043409
 C          5.3260987879       -1.2343679513        1.0231074726
 C          5.6738885714       -0.3637612970       -0.1844250720
 H          5.0424082298        0.5276402368       -0.1759123056
 H          6.7049358887       -0.0271053346       -0.0561005269
 C          5.5327874252       -1.0708708578       -1.5396918683
 H          6.4083752748       -0.8373179462       -2.1491744554
 H          5.5198589782       -2.1516875351       -1.3944562366
 C          4.3033140756       -0.6533861988       -2.3489434020
 H          4.4164764009       -1.0436794651       -3.3639966107
 H          4.2654682464        0.4365743933       -2.4213463895
 C          2.9536524223       -1.1496213548       -1.8145189018
 H          2.1996511949       -0.9502141807       -2.5815551809
 H          3.0008473921       -2.2281325079       -1.6517116597
 H          5.4144232425       -0.6210517886        1.9227809858
 H          6.0421092760       -2.0546325166        1.1000413120
 H          3.6771272994       -2.2561555851        1.9505978312
 H          3.8621606097       -2.6117634178        0.2222642882
 O          2.4516610945       -0.1370643681        1.7758863867
 C          1.5852396140        0.9368588137        1.6856518038
 O          1.2880206396        1.4471412928        2.7830616494
 H         -1.0192566902        0.8839288543       -1.2925344338
 C         -1.6920970336        1.2184999236       -0.5164985914
 C         -1.2278478765        2.1048564679        0.4462583281
 C         -2.1045153361        2.5260377801        1.4381410992
 C         -3.4121911897        2.0704627192        1.4639919339
 C         -3.8693422265        1.1828983992        0.5057537781
 C         -2.9979294735        0.7564602784       -0.4874164925
 N         -3.4386556035       -0.1914410792       -1.4433367973
 S         -3.6767029221       -1.7193306300       -0.7944091918
 O         -3.7109684398       -2.6287966958       -1.9164084953
 O         -4.8521329474       -1.6874413848        0.0375234675
 C         -2.2296532228       -2.0148093382        0.2079327740
 C         -1.1050895126       -2.5496332688       -0.3872015717
 C          0.0384347137       -2.7228278845        0.3750793622
 C          0.0423221822       -2.3440502836        1.7084375385
 C         -1.0906712352       -1.7959161129        2.2883005679
 C         -2.2404997680       -1.6303065393        1.5337111267
 H         -3.1434721166       -1.2168076708        1.9520760710
 H         -1.0762595152       -1.4900337864        3.3221873022
 H          0.9346697274       -2.4704155297        2.3010462333
 H          0.9235621614       -3.1453653296       -0.0721110912
 H         -1.1464308414       -2.8334677136       -1.4267582673
 H         -2.8005370777       -0.2687692087       -2.2244915939
 H         -4.8756105175        0.7967384956        0.5237670166
 H         -4.0812071806        2.4055962187        2.2418687076
 H         -1.7505091812        3.2012169249        2.2033435698
 C          0.2105521708        2.5498907836        0.4267035987
 H          0.4116447755        3.0621817947        1.3802719797
 C          0.5239372073        3.5357873061       -0.6920621955
 C         -0.4102882149        3.8441253157       -1.8200757333
 C         -0.1868606208        4.8561744301       -0.7396000724
 H          0.3820432695        5.7451192413       -0.9662784728
 H         -0.9871557221        5.0119583440       -0.0316687988
 H          0.0234205626        4.0160608974       -2.7935565822
 H         -1.3627637364        3.3391567197       -1.8541150710
 H          1.5817897257        3.5484325847       -0.9344007857
 O          1.0883640655        0.9277063742       -1.9076305970
