  62
        -98.94006269
 C         -2.5777964993       -1.1683524657        0.3102427066
 C         -2.6016690430       -0.3602762383       -0.8536128578
 C         -3.5336899183        0.7789083511       -0.8228647060
 C         -4.2748615566        1.0019325721        0.2767114688
 C         -5.2206395945        2.1529696138        0.4580515246
 C         -4.5155541769        3.3551804081        1.1016890579
 C         -3.1917766934        3.7258830145        0.4326179932
 H         -2.8006081653        4.6041948617        0.9509078831
 H         -2.4742181142        2.9164268294        0.5878906536
 C         -3.3006406413        4.0237076516       -1.0694352291
 H         -4.3392030177        4.2291701743       -1.3311903859
 H         -2.7262371723        4.9259888565       -1.2892528806
 C         -2.7584179262        2.9177625603       -1.9769373367
 H         -2.6824741149        3.3179861123       -2.9913246113
 H         -1.7498412419        2.6416895741       -1.6582412820
 C         -3.6052214869        1.6410337756       -2.0518452195
 H         -3.2111337336        1.0305136182       -2.8694591284
 H         -4.6409573252        1.8985742744       -2.2821759167
 H         -5.1930402656        4.2103401976        1.0702022477
 H         -4.3152905100        3.1191525341        2.1496092555
 H         -5.6315770686        2.4343829541       -0.5094859759
 H         -6.0348087027        1.8297748478        1.1089730020
 O         -4.2035472496        0.2215126592        1.3862002683
 C         -3.3447029649       -0.8644319788        1.4373153785
 O         -3.3480440148       -1.4672350568        2.5301062636
 O         -1.8898043511       -0.5661212057       -1.8689333828
 C         -1.6515998325       -2.3667349643        0.4258094478
 C         -0.2698380448       -2.0021495443       -0.0617484581
 C          0.4158372303       -2.7038401885       -1.0434756559
 C          1.6904212432       -2.3165118014       -1.4200501630
 C          2.3064990305       -1.2277771667       -0.8322620267
 C          1.6309652086       -0.5191426115        0.1529958114
 C          0.3598354697       -0.9157316109        0.5351672153
 H         -0.1653753288       -0.3643635756        1.3075508523
 N          2.2486407968        0.5987965463        0.7480167477
 S          3.7384659845        0.3453977180        1.4854894737
 O          3.8571545142       -1.0077537306        1.9788096957
 O          3.8590139660        1.4002640417        2.4686670377
 C          4.9196307114        0.6260947039        0.1838097181
 C          4.9143927090        1.8545899157       -0.4473297475
 C          5.8329879115        2.0909740712       -1.4575232269
 C          6.7374843993        1.1020003292       -1.8150548106
 C          6.7316944598       -0.1249815201       -1.1693642194
 C          5.8147279593       -0.3684297991       -0.1585630837
 H          5.7684251917       -1.3082153494        0.3680640432
 H          7.4353827597       -0.8924876990       -1.4490189220
 H          7.4510639936        1.2890126722       -2.6019033776
 H          5.8403463658        3.0436046761       -1.9622960541
 H          4.1978196676        2.5965208468       -0.1365220568
 H          1.6395221936        1.1078450965        1.3725119819
 H          3.2948009705       -0.9182338644       -1.1307009293
 H          2.2088102422       -2.8678532570       -2.1896185994
 H         -0.0542151251       -3.5425167602       -1.5296779545
 H         -1.5761832814       -2.5619278786        1.5093147473
 C         -2.1980724667       -3.6408701135       -0.2015791499
 C         -3.6736120246       -3.8579557701       -0.3522700213
 C         -2.8175426758       -3.6617680066       -1.5654262665
 H         -2.6286902910       -4.5153744309       -2.1999586233
 H         -2.8815613148       -2.7263111094       -2.0974884289
 H         -4.0686055288       -4.8425041390       -0.1510428633
 H         -4.3318277347       -3.0552192705       -0.0522556155
 H         -1.6153260047       -4.5115950535        0.0834582787
