  62
        -98.93818291
 C         -0.3904203068       -2.0178423970       -0.2718706902
 C         -0.9405986913       -0.7986108402       -0.7316603799
 C         -2.2934827944       -0.4568765548       -0.2439373861
 C         -2.8943055636       -1.2583136096        0.6518105547
 C         -4.2345343438       -1.0938704916        1.3237213945
 C         -5.4104083551       -0.6672507471        0.4313315146
 C         -5.8817944364        0.7643306665        0.6918449724
 H         -6.9230503568        0.8527895581        0.3738284477
 H         -5.8531257313        0.9483758537        1.7679517553
 C         -5.0859690691        1.8517893538       -0.0274777419
 H         -5.3150806699        1.8196347502       -1.0947546019
 H         -5.4305520604        2.8170363617        0.3511294625
 C         -3.5665815407        1.7752505324        0.1394491761
 H         -3.3015506961        1.5256356586        1.1671100705
 H         -3.1628931598        2.7713186739       -0.0564691599
 C         -2.8889147490        0.7947944173       -0.8293682486
 H         -3.5882165736        0.5131543422       -1.6220191686
 H         -2.0483422932        1.2905331560       -1.3238480576
 H         -5.1458470872       -0.7954552380       -0.6169270948
 H         -6.2450198247       -1.3389020646        0.6388385250
 H         -4.4453040913       -2.0658939185        1.7758430129
 H         -4.1183257359       -0.3865778912        2.1492072855
 O         -2.2986816617       -2.3922571944        1.1211421850
 C         -1.0606489324       -2.8023240593        0.6697002083
 O         -0.6652954657       -3.8763154165        1.1690298215
 H          1.4487868099        0.0581647014       -0.1756815355
 C          2.1491923118       -0.5836907175        0.3323539224
 C          2.0591347595       -1.9585540134        0.1739656540
 C          2.9763411953       -2.7691259723        0.8320480141
 C          3.9516759601       -2.2125446642        1.6404888664
 C          4.0154284463       -0.8430555401        1.8253810216
 C          3.1010580537       -0.0256501965        1.1711763693
 N          3.1250258515        1.3679454091        1.3298861585
 S          1.6761316494        2.2085579138        1.3882765127
 O          1.9995537558        3.4287565789        2.1032556254
 O          0.6184893064        1.4134167529        1.9708984033
 C          1.3010295805        2.6432118930       -0.2958071160
 C          2.2693632234        2.5777394457       -1.2758027144
 C          1.9411442241        2.9707847211       -2.5635548359
 C          0.6639737263        3.4277675765       -2.8457590158
 C         -0.2944024873        3.4944034302       -1.8473950845
 C          0.0256708773        3.0983328524       -0.5593530596
 H         -0.6919085299        3.1161062219        0.2460894518
 H         -1.2903534218        3.8446737430       -2.0694534065
 H          0.4104587853        3.7271193178       -3.8506577616
 H          2.6827627219        2.9127077428       -3.3442756767
 H          3.2510054449        2.2078917145       -1.0294270110
 H          3.7843715417        1.7142440667        2.0115018622
 H          4.7603221602       -0.4088862863        2.4749403552
 H          4.6584838169       -2.8520316292        2.1472318982
 H          2.9088791065       -3.8415866535        0.7233878688
 C          0.9721673341       -2.5485945119       -0.6920940920
 H          0.9425229819       -3.6298686804       -0.4981011463
 C          1.2884204164       -2.3322377743       -2.1593901946
 C          2.2946588546       -3.2204654442       -2.8244720924
 C          0.8406864811       -3.3473905923       -3.1655035843
 H          0.5010281891       -3.0002111870       -4.1294876897
 H          0.3040395291       -4.2108957764       -2.7993413902
 H          2.9581772938       -2.7866833277       -3.5563967496
 H          2.7448433433       -4.0016725319       -2.2309091042
 H          1.2581428979       -1.2916804768       -2.4530125456
 O         -0.3543334507       -0.0083478065       -1.5188959172
