  62
        -98.94069520
 C          2.0581778419        0.9547139767        0.3015521616
 C          1.9543550574       -0.0266285394       -0.7156296870
 C          2.1723931892       -1.4156196979       -0.2868500966
 C          2.4146090917       -1.6963413710        1.0048210098
 C          2.6201035256       -3.0655993156        1.5946402851
 C          4.0512951931       -3.6021375692        1.4519554472
 C          4.4498837862       -4.0311396270        0.0392273134
 H          5.3860609401       -4.5861143870        0.1256758356
 H          3.6992201755       -4.7162589136       -0.3557265459
 C          4.6546097834       -2.8687418102       -0.9422577070
 H          4.7698127864       -1.9367975222       -0.3842361318
 H          5.5787368146       -3.0237788910       -1.5034099816
 C          3.5289894833       -2.6951643942       -1.9622333932
 H          3.4858777322       -3.5697588221       -2.6151187149
 H          3.7557951983       -1.8229885876       -2.5804207605
 C          2.1435449157       -2.4835456263       -1.3382877098
 H          1.4522931413       -2.1569213524       -2.1199747650
 H          1.7704817743       -3.4178784241       -0.9181911743
 H          4.7458662084       -2.8393921809        1.8109734800
 H          4.1395440218       -4.4694299804        2.1102538693
 H          2.3864079977       -2.9812569185        2.6582434629
 H          1.9174020721       -3.7656825221        1.1411649192
 O          2.4869978547       -0.7292774680        1.9580547278
 C          2.3081640969        0.6028178720        1.6306028385
 O          2.4063272561        1.3817875796        2.6022818476
 O          1.6936643256        0.2145089274       -1.9244876006
 C          1.8153603747        2.4375426027        0.0743372779
 C          0.3489466330        2.7657160543        0.2435521273
 C         -0.0490061383        3.9291030832        0.8930948071
 C         -1.3907899591        4.2120315469        1.0733353218
 C         -2.3608305782        3.3278872365        0.6364069293
 C         -1.9727801515        2.1648455377       -0.0181057564
 C         -0.6275931843        1.9051646437       -0.2332134499
 H         -0.3538796926        1.0016455427       -0.7557584724
 N         -2.9189786930        1.2319712591       -0.4718870319
 S         -2.5279692341       -0.4062753510       -0.2992227062
 O         -1.7817007451       -0.6101138572        0.9224584097
 O         -1.9182208680       -0.8731410729       -1.5179931363
 C         -4.1610651420       -1.1105569984       -0.1463077315
 C         -4.7115036956       -1.2596074615        1.1128666006
 C         -5.9951769093       -1.7696335950        1.2277232196
 C         -6.7045386677       -2.1167951835        0.0875962062
 C         -6.1384801546       -1.9630933516       -1.1691932764
 C         -4.8548467860       -1.4546327896       -1.2909912094
 H         -4.3690708332       -1.3248231990       -2.2440401434
 H         -6.6910096784       -2.2373912601       -2.0532278570
 H         -7.7035883824       -2.5123796253        0.1798429044
 H         -6.4356059439       -1.8938076643        2.2038189473
 H         -4.1181779492       -0.9850121120        1.9705303631
 H         -3.8567574182        1.4293372370       -0.1491111735
 H         -3.4076383968        3.5325609468        0.8019509831
 H         -1.6847281682        5.1184772530        1.5802265110
 H          0.7024833020        4.6034426266        1.2755620954
 H          2.3624496820        2.9587416038        0.8733906824
 C          2.3163753628        2.9525900005       -1.2610313714
 C          2.7271127900        4.3874191386       -1.3899037566
 C          3.7636973066        3.3054430512       -1.4177917343
 H          4.2498966528        3.0722870808       -2.3528704231
 H          4.4010709271        3.1874482429       -0.5532420446
 H          2.4988046549        4.9046706465       -2.3089132935
 H          2.6720912272        5.0087164967       -0.5091608376
 H          1.8236030828        2.4897571847       -2.1060061020
