  62
        -98.93681318
 C          1.8643196193        0.8507604616        0.7436452084
 C          2.2434624291        0.3768130702       -0.5343921912
 C          3.6872950391        0.3905514302       -0.8280436815
 C          4.5453990092        0.8644476814        0.0914867978
 C          6.0427115391        1.0116970316       -0.0147151527
 C          6.8269434292       -0.1615354589       -0.6201012515
 C          6.2254630296       -1.5503632888       -0.3599649798
 H          7.0055798598       -2.2066374482        0.0306061707
 H          5.4452565397       -1.4850211981        0.4003964802
 C          5.6549302695       -2.2005114703       -1.6229056890
 H          5.5905173297       -3.2795829001       -1.4631894478
 H          6.3524984293       -2.0338251211       -2.4467021493
 C          4.2647152793       -1.7215864010       -2.0401336793
 H          3.5167885495       -2.0882176704       -1.3315131487
 H          4.0323611992       -2.1697818122       -3.0091409187
 C          4.0937768089       -0.1974811612       -2.1483981709
 H          4.9914772488        0.2733968585       -2.5414953216
 H          3.2654049788       -0.0008341421       -2.8341079710
 H          6.9282186490       -0.0160495001       -1.6947230917
 H          7.8337363793       -0.1173461983       -0.2013169618
 H          6.2556997788        1.9182437610       -0.5884401237
 H          6.3832855693        1.1909014928        1.0078565871
 O          4.1309321993        1.3320136427        1.3039232074
 C          2.7949070994        1.3248119428        1.6653933677
 O          2.5684514295        1.7555696840        2.8151115472
 H         -2.1012979906        0.1178021002        0.2747210000
 C         -1.4929264304       -0.7222120093        0.5657028808
 C         -0.1985318804       -0.5227098685        1.0209970403
 C          0.5486369999       -1.6326306580        1.4064330814
 C          0.0241495202       -2.9065428682        1.3111369929
 C         -1.2673313099       -3.1009897989        0.8539816534
 C         -2.0303582402       -2.0001495695        0.4871635423
 N         -3.3411861902       -2.1617758703        0.0157617328
 S         -4.5371071703       -1.0898688000        0.4824320118
 O         -4.3159196402       -0.5919418285        1.8200018812
 O         -5.7746824402       -1.8115770605        0.2723892129
 C         -4.4494349109        0.2434012487       -0.6940116197
 C         -4.7405349210        1.5244526591       -0.2689238711
 C         -4.7225962414        2.5588683781       -1.1918146322
 C         -4.4145759616        2.2949666467       -2.5173380520
 C         -4.1263179015        1.0022745663       -2.9282370006
 C         -4.1477827711       -0.0370384127       -2.0119164794
 H         -3.9250590909       -1.0513667130       -2.2978981683
 H         -3.8837230216        0.8012913852       -3.9593320304
 H         -4.3972784019        3.1015002959       -3.2333529129
 H         -4.9464899216        3.5646580984       -0.8729466533
 H         -4.9613653709        1.6874708602        0.7739606788
 H         -3.6765817700       -3.1139034004        0.0048637439
 H         -1.6796998597       -4.0959713091        0.7816843346
 H          0.6223735104       -3.7569137177        1.6028938737
 H          1.5545345900       -1.4833858773        1.7757616010
 C          0.4010653294        0.8576066917        1.1417696687
 H          0.3739114695        1.1448457729        2.2040104883
 C         -0.3423911810        1.9047536507        0.3367299676
 C         -1.5048599710        2.6400766511        0.9304669671
 C         -0.1988145412        3.3449009511        0.7239749460
 H         -0.1299111215        4.0856410703       -0.0581944348
 H          0.4099449889        3.5647256122        1.5892654356
 H         -1.7954645608        2.3877737722        1.9395508974
 H         -2.3315842312        2.8975056602        0.2856644569
 H         -0.3711019112        1.6693927795       -0.7211279221
 O          1.4200278091       -0.0331688209       -1.3921451706
