  62
        -98.94936471
 C         -1.4265331772       -1.4761667811       -0.2773696399
 C         -2.6194088898       -1.0081818151        0.3195481917
 C         -3.1388418778        0.2616977917       -0.1998878267
 C         -2.4755582111        0.9029536078       -1.1787222876
 C         -2.8671390545        2.2149566823       -1.8027782879
 C         -2.4168430167        3.4399578820       -0.9944018122
 C         -3.2248984079        3.7134030328        0.2746435883
 H         -2.9710615415        4.7233523696        0.6032505089
 H         -4.2902000192        3.7036208930        0.0398264549
 C         -2.9375948542        2.7398891367        1.4262680582
 H         -1.9814201084        2.2390605115        1.2532892242
 H         -2.8266268545        3.3032127682        2.3564077129
 C         -4.0262759421        1.6925672927        1.6635895251
 H         -4.9395838255        2.1869355634        2.0041567078
 H         -3.6873818168        1.0254918212        2.4606039248
 C         -4.3677382133        0.8343211681        0.4391588774
 H         -4.9874457324       -0.0020878286        0.7730147127
 H         -4.9333379418        1.4215131033       -0.2843431480
 H         -2.4974623458        4.3119912768       -1.6479387901
 H         -1.3642963292        3.3204851888       -0.7234688017
 H         -3.9477897532        2.2491199921       -1.9449321159
 H         -2.3864334335        2.2506554403       -2.7828887897
 O         -1.3431630635        0.4074910808       -1.7438508681
 C         -0.7771684249       -0.7775220190       -1.2945049952
 O          0.2767115323       -1.0970891073       -1.8758441415
 O         -3.2202598569       -1.6216766973        1.2440129860
 C         -0.7744571826       -2.7397037102        0.2493028858
 C          0.6467471640       -2.4521646927        0.6700605903
 C          1.6843548717       -3.3623245399        0.5085196515
 C          2.9713033453       -3.0369209344        0.9006627346
 C          3.2558161384       -1.7966005630        1.4420242460
 C          2.2229237757       -0.8834736697        1.6169512198
 C          0.9311327176       -1.2256367522        1.2559563455
 H          0.1416245693       -0.5045477816        1.4076951933
 N          2.4572744764        0.3959754086        2.1585214595
 S          1.9350444201        1.7288445130        1.2927128957
 O          2.5912794960        2.8491373818        1.9367768991
 O          0.4961438550        1.7799438299        1.2593769155
 C          2.5936340125        1.5406078130       -0.3538461744
 C          3.9511332144        1.3292404783       -0.5012670747
 C          4.4732510774        1.1884373862       -1.7756966382
 C          3.6342963334        1.2645964792       -2.8774976398
 C          2.2775545683        1.4896551326       -2.7138179724
 C          1.7505541278        1.6286412317       -1.4398754622
 H          0.6978241022        1.7898171259       -1.2749037548
 H          1.6201168946        1.5446322236       -3.5663889796
 H          4.0400477845        1.1498621570       -3.8703097187
 H          5.5296793854        1.0177708804       -1.9072569018
 H          4.5807328242        1.2902108523        0.3729004059
 H          3.4051107962        0.5418427940        2.4765415126
 H          4.2633616833       -1.5367037012        1.7291461489
 H          3.7669513289       -3.7539379499        0.7678279695
 H          1.4853606845       -4.3262605025        0.0692375836
 H         -1.3528643076       -3.0220079847        1.1423940894
 C         -0.8781062391       -3.8567706786       -0.7698663935
 C         -1.0242501207       -5.2813384971       -0.3268254316
 C         -2.1896749504       -4.5624719221       -0.9348184159
 H         -2.5073001535       -4.8366655675       -1.9295651995
 H         -2.9985178708       -4.2558202864       -0.2876477998
 H         -0.5428469050       -6.0539297187       -0.9073116415
 H         -1.0500626451       -5.4759357276        0.7347815053
 H         -0.3021197801       -3.6527619264       -1.6656591253
