  62
        -98.93891677
 C         -1.2687028774       -1.4051415493       -0.2938769242
 C         -2.4841616802       -1.4758003285        0.4346840878
 C         -3.5935151436       -0.6371617482       -0.0386235085
 C         -3.4051273653        0.1410992732       -1.1194857581
 C         -4.4018155015        1.1168849505       -1.6780116579
 C         -4.4299371116        2.3926771586       -0.8123266431
 C         -5.7498051626        2.6274668860       -0.0765869667
 H         -6.4909195896        2.9962540436       -0.7889178902
 H         -5.5772640528        3.4170527213        0.6579482713
 C         -6.3475301777        1.4081621312        0.6320477565
 H         -6.8536602360        0.7725200472       -0.0959709163
 H         -7.1186319654        1.7813922802        1.3092957473
 C         -5.3620857860        0.5480965457        1.4336877606
 H         -5.8584864282        0.2298665247        2.3527381187
 H         -4.4918341276        1.1347975631        1.7298441865
 C         -4.8931089263       -0.7289396758        0.7120422961
 H         -5.6804656846       -1.0772749447        0.0377413858
 H         -4.7285997326       -1.5114776708        1.4587353907
 H         -4.2283049153        3.2626474082       -1.4396060889
 H         -3.6113593456        2.3355304529       -0.0907698295
 H         -5.3869777399        0.6568621457       -1.7150187647
 H         -4.0881014387        1.3556908814       -2.6944940422
 O         -2.2321062424        0.1798237633       -1.7985845809
 C         -1.1333078146       -0.5756913110       -1.4079202961
 O         -0.1398391461       -0.4142197316       -2.1423796985
 O         -2.6348091725       -2.2238945338        1.4391770504
 C         -0.1314270532       -2.2662744069        0.2217519348
 C          0.7483431818       -1.5292289297        1.2067875204
 C          1.2968584386       -2.2020684579        2.2937413011
 C          2.1212743834       -1.5436024944        3.1870294622
 C          2.4234170503       -0.2054943788        3.0093667034
 C          1.8769945175        0.4787351297        1.9296950607
 C          1.0453400655       -0.1857364472        1.0380887546
 H          0.6166227700        0.3641203351        0.2157484055
 N          2.1475069874        1.8413032389        1.7389197347
 S          2.3586683282        2.4517813934        0.1941984330
 O          3.0630163450        3.6994864806        0.4088105446
 O          1.0898944501        2.5572986876       -0.4791219368
 C          3.4484334108        1.2840512008       -0.5980866187
 C          2.9820577611        0.4063311058       -1.5539622168
 C          3.8654590362       -0.5181396837       -2.0927513556
 C          5.1842034002       -0.5513198556       -1.6695907071
 C          5.6374003119        0.3433324339       -0.7113521744
 C          4.7624971198        1.2685363426       -0.1685063402
 H          5.0772361547        1.9902540675        0.5677904324
 H          6.6650057841        0.3196917834       -0.3863752615
 H          5.8622465836       -1.2766217004       -2.0910182612
 H          3.5089566272       -1.2096529274       -2.8400164983
 H          1.9482885501        0.4426817154       -1.8618789680
 H          2.8182776139        2.2322070256        2.3842505401
 H          3.0652230130        0.3121462220        3.7054921685
 H          2.5350814049       -2.0759900236        4.0295230827
 H          1.0592057770       -3.2438915286        2.4450386122
 H         -0.6175197021       -3.0872807775        0.7678597262
 C          0.7350810751       -2.8652237500       -0.8700758738
 C          1.4078701092       -4.1848748885       -0.6468881285
 C          0.2604888769       -4.0810583111       -1.6055137425
 H          0.4551790399       -4.1486656974       -2.6650680592
 H         -0.6903611671       -4.5014423831       -1.3111915562
 H          2.4001582508       -4.3277673673       -1.0453932299
 H          1.2333192379       -4.6898257802        0.2905618955
 H          1.2699746593       -2.1188588359       -1.4417487292
