  62
        -98.93065674
 C         -1.9156795999       -1.6051616807       -0.2901802812
 C         -2.3276385298       -0.4925319102       -1.0648279405
 C         -3.6536162498        0.0669724897       -0.7328376603
 C         -4.3818616299       -0.4848517109        0.2527176693
 C         -5.7052747599        0.0206747189        0.7531995995
 C         -5.4920431899        1.2482468383        1.6616107703
 C         -6.0657031898        2.5514454987        1.1049229210
 H         -7.1507448698        2.5429642087        1.2277659809
 H         -5.6712432998        3.3684537083        1.7128518016
 C         -5.7640434996        2.8371997096       -0.3694472688
 H         -6.4429138596        2.2627871500       -1.0015196092
 H         -5.9939876996        3.8906514497       -0.5428224981
 C         -4.3240880896        2.5672033898       -0.8254960088
 H         -3.6348812497        2.6205349792        0.0179592313
 H         -4.0332667495        3.3581672102       -1.5202545283
 C         -4.1249654296        1.2293923802       -1.5626233396
 H         -5.0483616496        0.9575373106       -2.0818823399
 H         -3.3481885096        1.3633743606       -2.3217766795
 H         -5.9467322900        1.0635238577        2.6360263601
 H         -4.4197150199        1.3653127981        1.8327358104
 H         -6.3441755198        0.2743093894       -0.0897442604
 H         -6.1708702200       -0.7902582114        1.3135834590
 O         -3.9505028300       -1.5508074114        0.9761268387
 C         -2.7180461000       -2.1280194613        0.7280178285
 O         -2.4527902001       -3.0994120217        1.4643687779
 H          0.1568460702        0.3084310491       -0.2291954399
 C          0.7113839401       -0.3445152513        0.4273725398
 C          0.4655423200       -1.7117877413        0.4274490089
 C          1.1920210899       -2.5214546019        1.2944969285
 C          2.1379136499       -1.9805540124        2.1464050589
 C          2.3933032900       -0.6216149124        2.1298903398
 C          1.6772580901        0.1962293381        1.2637432902
 N          1.9409216502        1.5849382682        1.1935817411
 S          2.7931154403        2.0613169189       -0.1712184986
 O          3.0947115904        3.4614583888        0.0282608023
 O          2.0503137904        1.7144159897       -1.3520636489
 C          4.2972779203        1.1024821088       -0.0886552591
 C          4.2938900702       -0.1871748909       -0.5821062398
 C          5.4362441002       -0.9595885610       -0.4430328502
 C          6.5547051201       -0.4331851015        0.1848982802
 C          6.5430668502        0.8645926282        0.6734712610
 C          5.4021909402        1.6400731984        0.5422641614
 H          5.3486647703        2.6547456281        0.9029551320
 H          7.4155971202        1.2724938579        1.1578658713
 H          7.4410659201       -1.0382664216        0.2919404699
 H          5.4452097601       -1.9681292808       -0.8238177608
 H          3.4083391302       -0.5604404005       -1.0706756101
 H          2.4207521401        1.9400968176        2.0102974313
 H          3.1360053400       -0.1923086429        2.7858850501
 H          2.6845826798       -2.6212070529        2.8207960786
 H          0.9924739299       -3.5827411618        1.3099415579
 C         -0.5831584399       -2.3159791807       -0.4713714915
 H         -0.7601407000       -3.3429289509       -0.1118978221
 C         -0.1346221298       -2.4368627898       -1.9201525215
 C          0.8641044303       -1.5363712095       -2.5745507409
 C          1.2433892702       -2.9441728297       -2.2331899917
 H          1.3639683702       -3.6555913692       -3.0360483322
 H          1.9139569001       -3.0965786903       -1.4003552718
 H          1.2771813603       -0.7158325599       -2.0093134604
 H          0.6915960704       -1.2802115088       -3.6092983408
 H         -0.9421709498       -2.7899742094       -2.5544667318
 O         -1.6519294297        0.0194238703       -1.9927380602
