  62
        -98.93511288
 C          1.6708545395        0.2734884700        0.2765671100
 C          2.7977527494        1.0653699503       -0.0454058396
 C          3.9634319796        0.3515142807       -0.6037633996
 C          3.8911286499       -0.9743649793       -0.8072544300
 C          4.9718424401       -1.8857763890       -1.3192876301
 C          5.7538713801       -2.5112571992       -0.1517713102
 C          6.9279534298       -1.6762089391        0.3577450502
 H          7.3072896198       -2.1639830793        1.2587037802
 H          7.7286037900       -1.6925283188       -0.3847644896
 C          6.5990995495       -0.2182840193        0.6893700806
 H          5.6489708395       -0.1674214196        1.2241803505
 H          7.3709079194        0.1529883407        1.3665106108
 C          6.5503522196        0.6863231211       -0.5509380892
 H          6.9837091398        0.1534696914       -1.3972129692
 H          7.1796898294        1.5628597311       -0.3830010988
 C          5.1563293495        1.2093447709       -0.9285311692
 H          5.1391201797        1.4385274512       -1.9993341592
 H          4.9692006393        2.1527518108       -0.4061953290
 H          6.1420938903       -3.4810769590       -0.4695194704
 H          5.0493302000       -2.6926218195        0.6639318297
 H          4.4697563903       -2.6846694889       -1.8689017804
 H          5.6342181801       -1.3563393187       -1.9976126299
 O          2.7778904400       -1.6978830296       -0.5071632604
 C          1.6585329098       -1.1054073899        0.0408817696
 O          0.7246642799       -1.8978844102        0.2766750393
 O          2.8602322192        2.3133700503        0.1193393608
 C          0.3945360293        0.8310518496        0.8848690500
 C         -0.5092510706        1.4473588198       -0.1562628900
 C         -0.1090008607        2.5398259200       -0.9181956096
 C         -0.9735982907        3.1008715201       -1.8397499596
 C         -2.2549177205        2.6034172600       -2.0012772599
 C         -2.6644164505        1.5124488997       -1.2442034903
 C         -1.7844960105        0.9336373996       -0.3406492503
 H         -2.1015901804        0.0751576294        0.2316925294
 N         -3.9521070404        0.9784678995       -1.3884214606
 S         -4.7774121205        0.3943598690       -0.0553287209
 O         -6.1716388604        0.4585375789       -0.4388218211
 O         -4.4164768908        1.1048649887        1.1488081493
 C         -4.2922191602       -1.3137605110        0.0578306587
 C         -4.4141523799       -2.1042501507       -1.0675392616
 C         -4.0644997797       -3.4421274406       -0.9859555419
 C         -3.6040015897       -3.9647930209        0.2130861980
 C         -3.4905408900       -3.1589291712        1.3349029283
 C         -3.8382879403       -1.8196827012        1.2591394886
 H         -3.7597626505       -1.1568140214        2.1069454588
 H         -3.1284151801       -3.5661055114        2.2653570282
 H         -3.3294754696       -5.0060410509        0.2746823378
 H         -4.1496577294       -4.0732919204       -1.8559222221
 H         -4.7788659098       -1.6633753905       -1.9803035115
 H         -4.5570809904        1.4836249896       -2.0192363106
 H         -2.9340239305        3.0544825701       -2.7089756299
 H         -0.6515720407        3.9457322404       -2.4298649893
 H          0.8842536992        2.9390144802       -0.7831418194
 H         -0.1342084106       -0.0368842206        1.3021404397
 C          0.6377176190        1.8224639093        2.0080523603
 C         -0.5002989412        2.1614181089        2.9217848202
 C          0.6478758789        1.3399343990        3.4254547002
 H          1.3402361387        1.7928474089        4.1193003704
 H          0.4846390690        0.2856704889        3.5968785598
 H         -0.5945689114        3.1791264188        3.2689301805
 H         -1.4482809411        1.6730560788        2.7467272799
 H          1.3244071289        2.6149555195        1.7422943606
