  62
        -98.94548298
 C         -1.7430159522       -1.4401751068        0.2124964345
 C         -1.5307255367       -0.1171094261       -0.2466083129
 C         -2.5383688689        0.8666361234        0.1714433062
 C         -3.5580696167        0.4897470304        0.9634912292
 C         -4.6491064863        1.3832006403        1.4884687348
 C         -5.8102240920        1.5937384842        0.5069432686
 C         -5.4966316651        2.4946166858       -0.6883142566
 H         -6.4482191923        2.7316046935       -1.1684777575
 H         -5.0698436788        3.4327308106       -0.3322939948
 C         -4.5623943825        1.8629923876       -1.7298155296
 H         -4.9640392632        2.0361544938       -2.7308903312
 H         -4.5305307075        0.7810881178       -1.5815004385
 C         -3.1338949899        2.4071564649       -1.7133929484
 H         -3.1425168486        3.4635149215       -1.9908116073
 H         -2.5539111863        1.8655620853       -2.4647952012
 C         -2.4165949408        2.2606888378       -0.3648982967
 H         -1.3534638322        2.4579488170       -0.5179777938
 H         -2.8123697981        2.9801402146        0.3513060445
 H         -6.1473798321        0.6178811099        0.1496530127
 H         -6.6330069138        2.0436567960        1.0674287666
 H         -5.0412625970        0.9002378334        2.3860835820
 H         -4.2291931481        2.3493637194        1.7692183044
 O         -3.7067047602       -0.7867735186        1.4090539992
 C         -2.8156642205       -1.7796211001        1.0383990781
 O         -3.0781008361       -2.9065263402        1.5057805068
 H          1.5031583957       -1.7130862914       -1.4812179941
 C          1.6279124083       -1.7540529633       -0.4111708337
 C          0.5847531828       -2.1833394934        0.3920786490
 C          0.7722484656       -2.2094724057        1.7715711804
 C          1.9749626960       -1.8197671720        2.3289513365
 C          3.0123781123       -1.3812841275        1.5237094007
 C          2.8301411792       -1.3402876328        0.1485011529
 N          3.8701737368       -0.8792280640       -0.6808735614
 S          4.5755339989        0.5943695674       -0.3156384499
 O          5.2609685939        0.9906969198       -1.5252377463
 O          5.3996173283        0.4467776911        0.8583203213
 C          3.2282646403        1.7117684996        0.0224349962
 C          2.8584179610        1.9628259105        1.3277957135
 C          1.7898757521        2.8111684473        1.5678204017
 C          1.1161886832        3.3920875025        0.5051981898
 C          1.4990874949        3.1280495332       -0.8005923585
 C          2.5616987522        2.2754711594       -1.0466478559
 H          2.8925587192        2.0522189576       -2.0482047746
 H          0.9703951680        3.5776288937       -1.6259629586
 H          0.2876638310        4.0561929295        0.6969046339
 H          1.4853202209        3.0156282458        2.5818954886
 H          3.4143533156        1.5023583184        2.1277636828
 H          3.6354314679       -0.9098361919       -1.6628938441
 H          3.9551915976       -1.0660091834        1.9402890447
 H          2.1071770944       -1.8525163015        3.3999099314
 H         -0.0459540700       -2.5330616913        2.4008730171
 C         -0.7709184651       -2.5477134256       -0.1598813618
 H         -1.1231468597       -3.4502599775        0.3574971909
 C         -0.7870531426       -2.8026189276       -1.6521820275
 C         -0.2351345247       -4.0871610691       -2.1912772215
 C         -1.7135310468       -3.8419442227       -2.2042997898
 H         -2.1969893190       -3.6510889383       -3.1507899810
 H         -2.3302657857       -4.3837738352       -1.5020403932
 H          0.1545361864       -4.7992441020       -1.4796485300
 H          0.2960337693       -4.0692733705       -3.1309002274
 H         -0.6503934849       -1.9021399982       -2.2391287674
 O         -0.5608350685        0.2312967964       -0.9677513036
