  62
        -98.94462701
 C          1.9829189273        1.3266620281        0.3631195204
 C          2.7108305320        0.8471600205       -0.7528725865
 C          3.9093830406        0.0538339841       -0.4411642083
 C          4.2315882427       -0.1809924609        0.8437641633
 C          5.3935007788       -1.0147740354        1.2988727853
 C          4.9860716737       -2.4831287645        1.4844179142
 C          4.2217145948       -3.0671949688        0.2961019741
 H          4.0143046705       -4.1148139682        0.5254348294
 H          3.2567137994       -2.5621936312        0.2072582144
 C          4.9649230169       -2.9745613654       -1.0438890833
 H          6.0270028433       -2.8005532341       -0.8672097729
 H          4.8748613373       -3.9324481388       -1.5604761302
 C          4.4268002996       -1.9035327698       -1.9946137505
 H          3.3447078294       -2.0173536054       -2.1008512928
 H          4.8706490929       -2.0702023106       -2.9797022754
 C          4.7223862411       -0.4510963793       -1.5997463759
 H          5.7899129987       -0.3332956272       -1.4027839345
 H          4.4565667135        0.1832810596       -2.4503619122
 H          5.8876324864       -3.0717253475        1.6634764669
 H          4.3507232621       -2.5576539715        2.3701443445
 H          6.1958217466       -0.9394753055        0.5676208080
 H          5.7461561884       -0.6216413520        2.2539203108
 O          3.4948825870        0.2781023410        1.8880043882
 C          2.3504018199        1.0289197895        1.6749846541
 O          1.7517287341        1.3620800743        2.7189657966
 H         -0.2000997361       -0.1783658556        0.9544757192
 C         -0.6761084669        0.1225311025        0.0287982749
 C         -0.3149215874        1.3339038243       -0.5504063239
 C         -0.9427951909        1.7189706106       -1.7264802601
 C         -1.8826026801        0.8933334116       -2.3212270330
 C         -2.2257462290       -0.3186617869       -1.7526152149
 C         -1.6195436157       -0.7027339868       -0.5620820216
 N         -1.9840539893       -1.9193487789        0.0396402698
 S         -3.6170895637       -2.2775150809        0.1349364865
 O         -3.7533935456       -3.1197973583        1.3025980162
 O         -4.0586953494       -2.8549697402       -1.1101496119
 C         -4.4288248432       -0.7091917556        0.3922135380
 C         -4.0933114863        0.0213066255        1.5150227292
 C         -4.6879446091        1.2566601002        1.7131167332
 C         -5.6033785575        1.7383044746        0.7896094455
 C         -5.9342852879        0.9901921164       -0.3292569299
 C         -5.3411824452       -0.2454391693       -0.5334148125
 H         -5.5668343786       -0.8584606360       -1.3906800241
 H         -6.6478076821        1.3662829268       -1.0444620758
 H         -6.0609476064        2.7024586946        0.9452787087
 H         -4.4313206471        1.8390545496        2.5835878586
 H         -3.3805533921       -0.3814023552        2.2172315686
 H         -1.5162695519       -2.1012845259        0.9151211129
 H         -2.9437823098       -0.9784202296       -2.2120227202
 H         -2.3526004652        1.1979837704       -3.2436096013
 H         -0.6882774859        2.6591827487       -2.1861141069
 C          0.7309300900        2.1622639473        0.1563617557
 H          0.3533702083        2.3914274246        1.1634121432
 C          1.0644996656        3.4613845300       -0.5447974129
 C          0.1858236451        4.6601799363       -0.3560084607
 C          1.5453239056        4.6208460924        0.2729988145
 H          2.3227207095        5.2505808759       -0.1329604097
 H          1.6132503369        4.4807734332        1.3423234901
 H          0.0295856467        5.3226505581       -1.1937325667
 H         -0.6731473735        4.5530986355        0.2887803730
 H          1.5261655365        3.3089282535       -1.5130088241
 O          2.3837838103        1.0696726947       -1.9468738038
