  62
        -98.93994136
 C         -1.9050541047       -1.3015936541       -0.5311699677
 C         -1.4341340501       -0.1064454049       -1.1198133948
 C         -2.2096080170        1.1244832227       -0.8587789555
 C         -3.3444455778        1.0434428357       -0.1421847169
 C         -4.2855291530        2.1443852500        0.2725905269
 C         -3.7385280238        2.9888543075        1.4309308643
 C         -2.2992522794        3.4624175521        1.2490167783
 H         -2.0164119277        4.0158769845        2.1490403582
 H         -1.6329859037        2.5991949616        1.1873493365
 C         -2.0659839412        4.3752761760        0.0465895828
 H         -2.7472866741        5.2273180782        0.1040514032
 H         -1.0456081002        4.7576450114        0.1335720835
 C         -2.2048174212        3.7205112502       -1.3316478699
 H         -1.7026378686        4.3723652171       -2.0522127120
 H         -3.2444314429        3.6588987253       -1.6437408530
 C         -1.5464448904        2.3497088299       -1.4395459124
 H         -1.3774235130        2.1189096548       -2.4977507983
 H         -0.5498848790        2.3952143588       -0.9828689122
 H         -4.3931596816        3.8526023830        1.5643873015
 H         -3.7817603738        2.3877106189        2.3428130811
 H         -4.5299396653        2.7750462315       -0.5768965622
 H         -5.2059525428        1.6567576267        0.6024853823
 O         -3.8017426042       -0.1456959212        0.3489194885
 C         -3.0879994683       -1.3168992584        0.2121062360
 O         -3.6110746885       -2.3039539357        0.7706866355
 H          0.8905032814       -0.9060963249       -0.1240292628
 C          0.8225160885       -1.6540902381        0.6465647647
 C         -0.1530146786       -2.6386685504        0.5632255236
 C         -0.2245737322       -3.5980011394        1.5654998814
 C          0.6483806879       -3.5570164150        2.6385371129
 C          1.5839687029       -2.5448653695        2.7440518761
 C          1.6652190547       -1.5793639358        1.7445359029
 N          2.5999028924       -0.5411380196        1.8375929024
 S          2.2955041768        1.0185543515        1.2907352582
 O          2.9598404234        1.8679840129        2.2604895959
 O          0.8874280890        1.2602974425        1.0983927181
 C          3.2167731161        1.0953318381       -0.2317680068
 C          2.5931124640        0.9888792772       -1.4573011815
 C          3.3700782507        1.0322156896       -2.6062575719
 C          4.7445033667        1.1792810498       -2.5127331447
 C          5.3558862878        1.2862785074       -1.2720935066
 C          4.5871715181        1.2441363622       -0.1215972677
 H          5.0181756063        1.3382345595        0.8613347691
 H          6.4253498260        1.4021670217       -1.1998213928
 H          5.3412676975        1.2115914553       -3.4107838612
 H          2.8887561863        0.9473962899       -3.5676115279
 H          1.5220108057        0.8658798301       -1.5137896683
 H          3.1209363011       -0.5237849326        2.7017829217
 H          2.2439188016       -2.4936339190        3.5970396032
 H          0.5842559413       -4.3071646549        3.4123257537
 H         -0.9852566606       -4.3630879103        1.5125663119
 C         -1.1520181669       -2.6238669181       -0.5709959627
 H         -1.9019617614       -3.4002508353       -0.3654610499
 C         -0.4912446934       -2.9375495432       -1.8973345729
 C         -0.1911633512       -4.3662689748       -2.2343289754
 C         -1.2801672269       -3.6368634150       -2.9612113172
 H         -1.1188551292       -3.3539373023       -3.9903776360
 H         -2.3053819649       -3.8933145837       -2.7355636547
 H          0.7219204835       -4.5881305794       -2.7647728054
 H         -0.4790256676       -5.1214465447       -1.5185126786
 H          0.2149974982       -2.1842871157       -2.2179268499
 O         -0.4055357049       -0.0316028552       -1.8438946271
