  62
        -98.94658452
 C          0.0334723729       -1.9518060010       -0.6333106772
 C          0.7058961157       -2.2204035565        0.5832643040
 C          2.1322248419       -1.8773874825        0.6085596639
 C          2.7156002925       -1.3537254361       -0.4847415322
 C          4.1692981097       -0.9891016470       -0.6179962627
 C          4.5155149760        0.4029959068       -0.0737113733
 C          4.4937093559        0.5379774008        1.4487829786
 H          5.1078564491       -0.2451180111        1.8943722926
 H          4.9600508583        1.4944499108        1.6916384289
 C          3.0871556914        0.5045515398        2.0630783134
 H          2.9881277823        1.3092733996        2.7945808471
 H          2.3425175630        0.6893293825        1.2845350841
 C          2.7446055378       -0.8020047524        2.7795972279
 H          3.3923289279       -0.9234484603        3.6508272475
 H          1.7117428134       -0.7405871026        3.1325501817
 C          2.8695156258       -2.0537996920        1.9011358360
 H          3.9186785930       -2.2837500750        1.7173520608
 H          2.4136020330       -2.8927617851        2.4325638584
 H          3.8174307277        1.1217683112       -0.5050473029
 H          5.5195939118        0.6498440655       -0.4257611670
 H          4.7806027789       -1.7423216810       -0.1199910498
 H          4.3978110423       -1.0072671539       -1.6856932400
 O          2.0322772816       -1.1108638160       -1.6356764260
 C          0.6749702625       -1.3759486501       -1.7287180389
 O          0.1627447722       -1.0619772132       -2.8230284541
 H         -1.1539097071        0.3724111644       -0.3144550221
 C         -1.8726048891       -0.0447112721        0.3767157249
 C         -2.1720119914       -1.4000405679        0.3095719244
 C         -3.0979247268       -1.9207317735        1.2029779104
 C         -3.6907117870       -1.1022524829        2.1492685427
 C         -3.3956585175        0.2471856134        2.2065528291
 C         -2.4812338136        0.7814709452        1.3054644605
 N         -2.1531741119        2.1464671434        1.3208369486
 S         -2.0304576263        2.9670738989       -0.1361867970
 O         -2.3540042387        4.3390978079        0.1968436535
 O         -2.8470104139        2.3517335500       -1.1555078233
 C         -0.3087864874        2.9061876187       -0.5839372862
 C          0.5996237295        3.5408947051        0.2413256948
 C          1.9289591161        3.5964886693       -0.1427576688
 C          2.3262601981        3.0220143532       -1.3417336974
 C          1.4076718959        2.3673011984       -2.1474033860
 C          0.0755443526        2.3111896210       -1.7686117725
 H         -0.6632547345        1.8125604221       -2.3775106141
 H          1.7141636169        1.8942333124       -3.0670979133
 H          3.3556859069        3.0939183552       -1.6573138220
 H          2.6507441428        4.0914642099        0.4866279085
 H          0.2475633356        3.9926394329        1.1537050284
 H         -2.6522596928        2.6923293510        2.0085604750
 H         -3.8644515538        0.8844612070        2.9411384068
 H         -4.3993878463       -1.5209555570        2.8478123737
 H         -3.3480394465       -2.9682224497        1.1673586133
 C         -1.4568416900       -2.2195790366       -0.7377980008
 H         -1.7693552970       -1.8505258723       -1.7261407579
 C         -1.7417680461       -3.7040645160       -0.6571210867
 C         -2.9650119239       -4.2714082131       -1.3103798974
 C         -1.6115120720       -4.5337078499       -1.8976166473
 H         -1.1948920648       -5.5261318426       -1.8132902208
 H         -1.3396728438       -4.0223436547       -2.8098968778
 H         -3.4785925255       -5.0879314259       -0.8256619206
 H         -3.6179091023       -3.5854184969       -1.8291251524
 H         -1.4063439302       -4.1427222000        0.2753547518
 O          0.1492529277       -2.7227851289        1.5936627575
