  62
        -98.94361314
 C         -1.8014458331        0.8660089233       -0.8210748072
 C         -2.0030354659        0.4032036806        0.5016482910
 C         -3.4002516816        0.3681658103        0.9580246897
 C         -4.3759018107        0.7859260165        0.1309321506
 C         -5.8424162959        0.7508264828        0.4482676763
 C         -6.4783516477       -0.5679185714       -0.0135553377
 C         -5.7077891445       -1.8128703984        0.4263321737
 H         -6.2644757425       -2.6823238795        0.0697834717
 H         -4.7364160250       -1.8267339847       -0.0734902435
 C         -5.4974317719       -1.9268981113        1.9426251745
 H         -6.2001048478       -1.2757337537        2.4638493223
 H         -5.7164784774       -2.9517346988        2.2497645437
 C         -4.0746069279       -1.6157631242        2.4109296710
 H         -3.3596005127       -2.1982555102        1.8242045971
 H         -3.9822050739       -1.9368312798        3.4518627891
 C         -3.6592675757       -0.1404978663        2.3481228003
 H         -2.7109160803       -0.0399462936        2.8836989400
 H         -4.4071487992        0.4746815995        2.8523755720
 H         -6.5285239521       -0.5645389558       -1.1049471682
 H         -7.4982460998       -0.6135826086        0.3726821002
 H         -5.9804104473        0.8770032771        1.5202583992
 H         -6.3270379944        1.5789478844       -0.0716240617
 O         -4.1386604010        1.2471163014       -1.1242893563
 C         -2.8520151284        1.2837025798       -1.6368622720
 O         -2.7757796146        1.6993643480       -2.8113151890
 O         -1.0689210182        0.0374134530        1.2607155912
 C         -0.3961326862        0.9152025576       -1.3925179021
 C          0.2326305499       -0.4555388589       -1.3314171923
 C         -0.4915508748       -1.5518040995       -1.7938839649
 C          0.0443079853       -2.8234803103       -1.7442870281
 C          1.3170833308       -3.0295594499       -1.2409446237
 C          2.0523680016       -1.9423011850       -0.7858147047
 C          1.5096785191       -0.6648998329       -0.8373102286
 H          2.0971223491        0.1663681023       -0.4875364512
 N          3.3279828645       -2.1246636305       -0.2398131462
 S          4.5124308962       -0.9571947477       -0.3577123029
 O          4.4996029446       -0.3076002556       -1.6478858461
 O          5.7352155065       -1.6528210339       -0.0160460112
 C          4.1343761554        0.2180235890        0.9254129902
 C          4.4064400160        1.5534012786        0.7021395979
 C          4.1407221217        2.4702360037        1.7068583016
 C          3.6116112282        2.0370701461        2.9126663072
 C          3.3488744775        0.6920646369        3.1227894618
 C          3.6147994548       -0.2300333263        2.1232981472
 H          3.4133068373       -1.2801735294        2.2531165548
 H          2.9324790640        0.3593051153        4.0599340019
 H          3.4004676997        2.7522675824        3.6920776181
 H          4.3439061782        3.5171040905        1.5453289495
 H          4.8077674793        1.8468833003       -0.2551569008
 H          3.6955580354       -3.0629585719       -0.2823226817
 H          1.7351107770       -4.0236964777       -1.1966901131
 H         -0.5316791173       -3.6638628976       -2.1021590793
 H         -1.4861903937       -1.3911740880       -2.1884249301
 H         -0.5046709943        1.1933093388       -2.4514128911
 C          0.4124373719        1.9850389265       -0.6881931073
 C          1.5339078977        2.6776354469       -1.4003000456
 C          0.2572062405        3.4107147981       -1.1208981189
 H          0.2599713275        4.1822314821       -0.3659234452
 H         -0.4137190492        3.6078008000       -1.9446272743
 H          2.4130616258        2.9457752846       -0.8343514472
 H          1.7418109453        2.3800875655       -2.4172380354
 H          0.5220973749        1.7926520713        0.3731984900
