  62
        -98.94468606
 C         -2.0133669648       -0.7557387172        0.5618366815
 C         -1.9571011927       -0.0523030956       -0.6655313573
 C         -2.0077006060        1.4100809999       -0.5638455904
 C         -2.0436615356        1.9953826890        0.6465398999
 C         -2.0461277371        3.4763448288        0.9146173185
 C         -3.4331308035        4.1283854419        0.8281505446
 C         -3.9982366585        4.2719949381       -0.5854781065
 H         -4.8641843655        4.9334129769       -0.5179235527
 H         -3.2605159790        4.7629644259       -1.2206969318
 C         -4.4359464152        2.9493429797       -1.2297768973
 H         -5.4171873646        3.0767799692       -1.6921937026
 H         -4.5416999035        2.1851854483       -0.4563924321
 C         -3.4898206056        2.4276155091       -2.3113305431
 H         -3.8761249177        1.4715832005       -2.6732279306
 H         -3.4727575704        3.1249315464       -3.1517472592
 C         -2.0487620870        2.2040282207       -1.8340289033
 H         -1.5136452949        1.6304003385       -2.5948839323
 H         -1.5403084359        3.1588316546       -1.7000587618
 H         -3.3508802135        5.1253055405        1.2671988983
 H         -4.1276736534        3.5505003050        1.4420865091
 H         -1.6642345300        3.6066176495        1.9297828752
 H         -1.3624935279        3.9702738862        0.2231379283
 O         -2.0634351495        1.2836323598        1.8064179776
 C         -2.0514871641       -0.1017013820        1.7913326501
 O         -2.0799734665       -0.6289172230        2.9241281567
 H          0.4683422935       -1.1697080769        0.9487636310
 C          0.5224571613       -1.9712604418        0.2250140545
 C         -0.6262834071       -2.6819527076       -0.0992366170
 C         -0.5270729875       -3.7208244370       -1.0152723295
 C          0.6870240118       -4.0086254701       -1.6154088530
 C          1.8162050773       -3.2648087559       -1.3279458593
 C          1.7309614788       -2.2367621713       -0.3948955925
 N          2.8601927672       -1.4702536613       -0.0552964368
 S          2.6273527287        0.1543830901        0.3452347217
 O          2.2614035948        0.2405855283        1.7382093745
 O          1.7333455279        0.7884519037       -0.5968944779
 C          4.2888384949        0.7670645694        0.1287812127
 C          4.6308027734        1.3981029555       -1.0522751697
 C          5.9335709425        1.8397735746       -1.2237153327
 C          6.8677847106        1.6406070254       -0.2183479668
 C          6.5095487395        1.0062175904        0.9620163309
 C          5.2085125072        0.5634678772        1.1403367934
 H          4.8797569016        0.0740082659        2.0423195467
 H          7.2375182243        0.8554970451        1.7427205943
 H          7.8806779688        1.9850511053       -0.3543018897
 H          6.2135818052        2.3364452862       -2.1386679078
 H          3.8676431683        1.5368914831       -1.8014070736
 H          3.6207254059       -1.5832554629       -0.7120981011
 H          2.7549504383       -3.4738988448       -1.8178780223
 H          0.7495865647       -4.8130725237       -2.3324993477
 H         -1.4025964629       -4.2948668050       -1.2710365954
 C         -1.9189353854       -2.2710386243        0.5652983693
 H         -1.8743119274       -2.5725316513        1.6227458254
 C         -3.1485846175       -2.8854603946       -0.0702010820
 C         -3.6346301348       -4.2330772900        0.3692856016
 C         -4.4006834761       -3.0011993363        0.7443102343
 H         -5.3484079505       -2.8133695082        0.2625813963
 H         -4.3560616487       -2.6596146891        1.7685480086
 H         -3.0774211841       -4.7366960798        1.1447086840
 H         -4.0617968470       -4.8935830087       -0.3700753132
 H         -3.2530602170       -2.6149297952       -1.1146013721
 O         -1.8711528280       -0.6162048883       -1.7880632949
