  62
        -98.94501227
 C         -2.5494878864       -0.1373847351        0.4391312971
 C         -2.3997453489        0.5414090338       -0.7938994892
 C         -2.1946471484        1.9933252219       -0.7050034482
 C         -2.1613693690        2.5824796063        0.5038155782
 C         -1.9566458119        4.0511802277        0.7375961334
 C         -0.4773386032        4.4005262392        0.9444359418
 C          0.4588584453        3.8290091138       -0.1207223746
 H          1.4601525843        4.2076728592        0.0985205626
 H          0.5068337060        2.7423120129       -0.0168062815
 C          0.0845531506        4.1900114482       -1.5647790607
 H         -0.5697158318        5.0629979005       -1.5724306713
 H          0.9965673911        4.4624207156       -2.1000241730
 C         -0.5704794258        3.0544925433       -2.3538698103
 H          0.0137104891        2.1393587793       -2.2240923067
 H         -0.5447472530        3.3169592204       -3.4150837119
 C         -2.0295297164        2.7467399306       -1.9942213178
 H         -2.6104044222        3.6715547317       -1.9806522808
 H         -2.4361370823        2.0950091871       -2.7731652746
 H         -0.3848406612        5.4886243455        0.9664380403
 H         -0.1611884559        4.0118687651        1.9155775548
 H         -2.3539705088        4.6029226045       -0.1125103471
 H         -2.5132696643        4.3328387931        1.6336365276
 O         -2.3030601787        1.8957214494        1.6678933112
 C         -2.4755524421        0.5212101256        1.6644302252
 O         -2.5619416902        0.0096347628        2.8017546781
 H         -0.1733137542       -0.9077439051        0.5189212160
 C         -0.3064775458       -1.7824396657       -0.1011677411
 C         -1.5793341855       -2.3136308786       -0.2628957953
 C         -1.7280432237       -3.4504301940       -1.0468404629
 C         -0.6269060701       -4.0248372725       -1.6590967890
 C          0.6349643735       -3.4810804736       -1.5100674782
 C          0.7934515765       -2.3391365112       -0.7304004420
 N          2.0526304298       -1.7286275751       -0.6098284899
 S          2.3493241583       -0.5943591089        0.5945567188
 O          2.1070088041       -1.1664949757        1.9023421753
 O          1.6399759213        0.6191375586        0.2795289919
 C          4.0992679498       -0.3529495433        0.3556365442
 C          4.5239792034        0.5589293602       -0.5917452760
 C          5.8841368805        0.7240964304       -0.8003552014
 C          6.7918650425       -0.0219915179       -0.0634065072
 C          6.3510218024       -0.9315716734        0.8861202875
 C          4.9921115545       -1.1015298040        1.0992825135
 H          4.6030588235       -1.7874939566        1.8345726805
 H          7.0588425423       -1.5073129859        1.4603246830
 H          7.8497264046        0.1087686057       -0.2276636021
 H          6.2301735710        1.4331792911       -1.5349164861
 H          3.7810730201        1.1213822225       -1.1332076383
 H          2.8289991527       -2.3575798567       -0.7564258742
 H          1.4891329055       -3.9243659062       -1.9980645257
 H         -0.7551474783       -4.9088830348       -2.2651803543
 H         -2.7054523411       -3.8845496388       -1.1805943158
 C         -2.7300627091       -1.6436553381        0.4503754580
 H         -2.6958668759       -1.9470513788        1.5083736109
 C         -4.0839701363       -2.0146260579       -0.1210609100
 C         -4.8253372508       -3.2106487669        0.3939592433
 C         -5.3007397720       -1.8309808470        0.7336045017
 H         -6.2056840644       -1.4653330022        0.2723149560
 H         -5.1450708668       -1.4667096234        1.7391216751
 H         -5.4096426482       -3.7938486262       -0.3017691871
 H         -4.3590433308       -3.7899672102        1.1766957116
 H         -4.1685544030       -1.7698628833       -1.1736500820
 O         -2.4465604800       -0.0344947553       -1.9128438878
