  62
        -98.93565961
 C         -1.7620510459       -1.4317248580        0.2163811587
 C         -2.5390081021       -0.6715085640        1.1239630217
 C         -3.2502993781        0.4805512381        0.5602779469
 C         -3.1274172918        0.7631727818       -0.7494407808
 C         -3.8262201308        1.8759997474       -1.4844241871
 C         -3.1361990681        3.2439946377       -1.3886233641
 C         -3.2140765192        3.9213411734       -0.0203003711
 H         -2.8691354497        4.9489353846       -0.1504458678
 H         -4.2539568543        3.9661753719        0.3047818649
 C         -2.3624992007        3.2485883665        1.0655102948
 H         -1.6350576592        2.5818110642        0.5962032380
 H         -1.7938340007        4.0073008831        1.6084117668
 C         -3.1680765423        2.4568725006        2.0958020580
 H         -2.4699374978        1.9949521080        2.7992824688
 H         -3.8095797894        3.1371251143        2.6603889902
 C         -4.0403977838        1.3470229167        1.4937894033
 H         -4.8975187298        1.7807213023        0.9790534664
 H         -4.4034462351        0.7161905989        2.3089407258
 H         -2.0882176851        3.1364919385       -1.6767378488
 H         -3.6137674041        3.8989912741       -2.1208849270
 H         -4.8504484284        1.9620391492       -1.1198405004
 H         -3.8566143438        1.5808066052       -2.5355492969
 O         -2.3502683829        0.0251933203       -1.5834742230
 C         -1.6307020824       -1.0765394254       -1.1278294130
 O         -0.9388854430       -1.6211033353       -2.0016457500
 O         -2.6343084620       -0.9437641926        2.3524145901
 C         -0.9927121472       -2.6282334739        0.7660261085
 C          0.4738279161       -2.3706640224        0.5242778962
 C          1.2912010270       -2.9554076839       -0.4335397069
 C          2.6082562041       -2.5488323622       -0.5813588093
 C          3.1399290234       -1.5393941779        0.1972358664
 C          2.3259980022       -0.9272300175        1.1423348424
 C          1.0197578477       -1.3532313358        1.3055380282
 H          0.3916109339       -0.8675153051        2.0427167658
 N          2.8301275631        0.1486148833        1.8980958882
 S          3.5793353476        1.3656952132        1.0223889655
 O          4.9712869410        1.0356950164        0.8434067848
 O          3.3144048483        2.5851418362        1.7537619653
 C          2.7638151405        1.3877796071       -0.5660589800
 C          3.5091463815        1.2183033431       -1.7146360141
 C          2.8617810455        1.2042061929       -2.9396395615
 C          1.4850749351        1.3511021066       -2.9935789918
 C          0.7507152794        1.5240469447       -1.8308960093
 C          1.3922435052        1.5451404056       -0.6042018651
 H          0.8419119729        1.6769775266        0.3151796543
 H         -0.3224183225        1.6195278487       -1.8791051057
 H          0.9740575998        1.3242199288       -3.9428024504
 H          3.4298669430        1.0701866810       -3.8459956481
 H          4.5762944765        1.0952570430       -1.6251350116
 H          2.1580431038        0.5365154500        2.5445303392
 H          4.1588731816       -1.2061555376        0.0835263424
 H          3.2252632985       -3.0214917637       -1.3301260754
 H          0.9111248545       -3.7109623905       -1.0958941277
 H         -1.1420583176       -2.5610839393        1.8561991360
 C         -1.6555684470       -3.9344707555        0.3591676704
 C         -1.5738520666       -4.5833279207       -0.9878225402
 C         -0.9365181244       -5.2400492523        0.2008070745
 H         -1.4063311553       -6.1264179649        0.6010766306
 H          0.1383144408       -5.2435163895        0.2824940151
 H         -2.4807420123       -5.0193367845       -1.3828261934
 H         -0.9655090155       -4.1167366668       -1.7444754017
 H         -2.6329093679       -3.9930614966        0.8341421073
