  62
        -98.93917601
 C          1.8567414075        1.0183551527       -0.1881162606
 C          2.9883954647        1.0923842392        0.6648160093
 C          4.2338080054        0.4664799619        0.1908537634
 C          4.2451858813       -0.1492307972       -1.0057467505
 C          5.3603185152       -0.8361675160       -1.7658051729
 C          6.6688384094       -1.2015317238       -1.0700985109
 C          6.5452438160       -2.2941311506       -0.0085529581
 H          6.3222011611       -3.2402940505       -0.5082917191
 H          7.5129302275       -2.4002923384        0.4866122064
 C          5.4680476563       -2.0681967424        1.0495505225
 H          4.4837070591       -2.0603635961        0.5764731657
 H          5.4875051857       -2.9213306320        1.7332863058
 C          5.6274323977       -0.7997672885        1.8854494051
 H          4.8940795531       -0.8460738491        2.6950455760
 H          6.6216895247       -0.7791365353        2.3358400613
 C          5.4020581407        0.5226946621        1.1324098268
 H          5.1639256861        1.2942349536        1.8703290456
 H          6.3016023395        0.8381428768        0.6091542819
 H          7.1333560707       -0.3137627101       -0.6511904075
 H          7.3413982368       -1.5731466865       -1.8480687086
 H          4.9164604509       -1.7417722616       -2.1917334886
 H          5.5903454026       -0.1795260417       -2.6122510751
 O          3.1333900883       -0.1951173906       -1.7937728853
 C          1.9247256904        0.3684677214       -1.4185642725
 O          1.0255048952        0.2117960833       -2.2701774327
 H         -0.7035012892       -0.3096582986       -1.0025602545
 C         -0.9725829369       -0.2826802155        0.0428497489
 C         -0.3853425047        0.6626687646        0.8721459456
 C         -0.7314348795        0.6720347655        2.2180702462
 C         -1.6403349939       -0.2436596983        2.7202897501
 C         -2.2230681365       -1.1844788157        1.8907754766
 C         -1.8782942742       -1.2045547003        0.5453663873
 N         -2.4793482292       -2.1498809782       -0.3115634002
 S         -4.1548998562       -2.1029421780       -0.3628024010
 O         -4.6843424206       -2.7886753953        0.7895030675
 O         -4.5241417488       -2.6489579098       -1.6494683690
 C         -4.5483403883       -0.3655960197       -0.2716802416
 C         -4.2438221415        0.4250590591       -1.3618980886
 C         -4.4688005639        1.7893835149       -1.2837210583
 C         -4.9832489380        2.3382219758       -0.1190628210
 C         -5.2850222237        1.5305152345        0.9660505612
 C         -5.0644980696        0.1644669634        0.8930458298
 H         -5.2850681926       -0.4994237385        1.7125358177
 H         -5.6863577728        1.9603727371        1.8694452687
 H         -5.1501126987        3.4021089046       -0.0582613598
 H         -4.2375893210        2.4177156980       -2.1290606257
 H         -3.8459897119       -0.0353013935       -2.2524499872
 H         -2.1011399795       -2.1219490036       -1.2481097076
 H         -2.9366260364       -1.9034189085        2.2599084883
 H         -1.8981852672       -0.2243930346        3.7680628959
 H         -0.2734323954        1.3975894568        2.8742453455
 C          0.5823565815        1.6775021990        0.3121635442
 H          0.9038483089        2.3234904770        1.1398040616
 C         -0.1002892707        2.5389658269       -0.7333973163
 C         -1.0826050052        3.5776674583       -0.2855235235
 C          0.2500955132        3.9919171298       -0.8319382919
 H          0.2916772360        4.4454087394       -1.8109212333
 H          0.9885190653        4.3759699304       -0.1432585493
 H         -1.9614713397        3.7468918461       -0.8875222306
 H         -1.2497396235        3.6808318217        0.7756392764
 H         -0.3055938698        2.0142603232       -1.6571043398
 O          2.9630524115        1.6761412152        1.7808308577
