  62
        -98.94148996
 C         -1.7397669235       -0.8963564373        0.2211166551
 C         -1.9639124584        0.4836398352       -0.0319692160
 C         -3.2608097142        0.8416749356       -0.6187942786
 C         -4.1409890431       -0.1345215792       -0.9047215924
 C         -5.5183761785        0.0843070767       -1.4587904999
 C         -6.5532493822        0.2247786982       -0.3337695586
 C         -6.1483823276        1.2170187929        0.7563732964
 H         -6.9662502327        1.2576924848        1.4791052805
 H         -5.2734260121        0.8294443589        1.2832035079
 C         -5.8457531286        2.6327157825        0.2456360843
 H         -6.2730122691        2.7668217977       -0.7487657051
 H         -6.3311272548        3.3540424424        0.9065042869
 C         -4.3586837372        2.9905781447        0.2108340034
 H         -4.2728319912        4.0683324368        0.0490570295
 H         -3.9062419514        2.7679771528        1.1803820233
 C         -3.5298748577        2.2973726831       -0.8781009380
 H         -2.5496493246        2.7816467013       -0.9094616798
 H         -4.0116056132        2.4324688826       -1.8486359315
 H         -7.5030723240        0.5327472053       -0.7747256572
 H         -6.6954977087       -0.7541186529        0.1299619784
 H         -5.7812087403       -0.7757521370       -2.0769886062
 H         -5.5166440126        0.9784175921       -2.0792066466
 O         -3.8849902340       -1.4451646790       -0.6740270534
 C         -2.6900534818       -1.8643053475       -0.1048179375
 O         -2.6243111109       -3.1006804163        0.0436737812
 O         -1.1147416876        1.3769202201        0.2297467905
 C         -0.4047038329       -1.2546413835        0.8492130829
 C          0.6019213903       -1.7120041826       -0.1795482684
 C          0.3965284386       -2.8539324048       -0.9465876401
 C          1.3534792579       -3.2627280618       -1.8570162914
 C          2.5366088013       -2.5595268772       -2.0034638814
 C          2.7510183508       -1.4172435328       -1.2418045789
 C          1.7770656923       -0.9946852502       -0.3480120899
 H          1.9412340770       -0.0973377071        0.2286561560
 N          3.9327553209       -0.6758789119       -1.3717785613
 S          4.6365661659        0.0325155890       -0.0288557511
 O          6.0237187229        0.2103192231       -0.4020081916
 O          4.3942959809       -0.7380417923        1.1681105414
 C          3.8638436061        1.6308252892        0.0908254826
 C          3.8466045474        2.4357609259       -1.0307773151
 C          3.2674158454        3.6910917022       -0.9437650307
 C          2.7212034742        4.1192391469        0.2567410907
 C          2.7502672994        3.3009787542        1.3749307739
 C          3.3275180973        2.0438494548        1.2937924839
 H          3.3655263488        1.3731995562        2.1382260767
 H          2.3217058040        3.6339913924        2.3066431631
 H          2.2679033664        5.0957485334        0.3221804298
 H          3.2407817499        4.3311230837       -1.8110459119
 H          4.2830426812        2.0696570225       -1.9450913402
 H          4.6194263057       -1.0703673007       -1.9976725189
 H          3.2887619869       -2.8909765907       -2.7033489814
 H          1.1828339350       -4.1484469916       -2.4504837209
 H         -0.5194266730       -3.4112969242       -0.8251129868
 H         -0.0286162807       -0.3140077507        1.2745691240
 C         -0.4995409666       -2.2767535111        1.9665679246
 C          0.6750987190       -2.4465181191        2.8818272930
 C         -0.5838818895       -1.8093356469        3.3869421382
 H         -1.2020367914       -2.3648618730        4.0762412763
 H         -0.5802354102       -0.7437596109        3.5648225624
 H          0.9202576611       -3.4406826938        3.2232679587
 H          1.5393363690       -1.8206328977        2.7114433637
 H         -1.0590737585       -3.1624171025        1.6956958349
