  62
        -98.93476101
 C         -1.0626946196       -1.8736771502       -0.0117655006
 C         -1.9764808099       -1.3261671208        0.9268697895
 C         -3.1008052600       -0.5462123809        0.3832426097
 C         -3.2048970799       -0.3972094004       -0.9496654902
 C         -4.2706572500        0.3815055997       -1.6681716500
 C         -4.0012414104        1.8963907697       -1.5726140493
 C         -5.0391339107        2.6706782591       -0.7590438891
 H         -4.6303665310        3.6654611191       -0.5694628087
 H         -5.9406648707        2.7952221391       -1.3627244092
 C         -5.4527791307        2.0380962984        0.5730308506
 H         -5.9892281609        2.8058508781        1.1345708308
 H         -6.1652769005        1.2319537583        0.3917180602
 C         -4.3083316706        1.5005940184        1.4417714205
 H         -4.5341252308        1.7390378879        2.4830113405
 H         -3.3756304007        2.0071039787        1.1954336408
 C         -4.1079589002       -0.0245012616        1.3715359699
 H         -3.7465462703       -0.3741152319        2.3432671797
 H         -5.0728185801       -0.5072886117        1.1906714895
 H         -3.0103879305        2.0470503498       -1.1398785692
 H         -3.9682417104        2.3230062901       -2.5763919592
 H         -4.2548837798        0.0598758301       -2.7100095901
 H         -5.2441515000        0.1400898592       -1.2462658002
 O         -2.2920741297       -0.9062517198       -1.8158606803
 C         -1.2046157295       -1.6558384997       -1.3820062905
 O         -0.4721519193       -2.0453350791       -2.3114090606
 H          1.3710284904       -1.2970179291       -1.3174593401
 C          1.8476973202       -1.2162643793       -0.3514892200
 C          1.3177871403       -1.9137021899        0.7258886497
 C          1.9412638201       -1.7982079703        1.9622300898
 C          3.0660688499       -1.0047058300        2.1146547402
 C          3.5816621699       -0.2994840695        1.0421006006
 C          2.9620161500       -0.4070330091       -0.1961290595
 N          3.4339129799        0.3734008015       -1.2748416592
 S          3.3673426095        2.0262628913       -0.9780598085
 O          3.0983125995        2.6503835318       -2.2541862682
 O          4.5841453093        2.4374107513       -0.3237105682
 C          1.9914851093        2.2201337905        0.1439206415
 C          0.7467941295        1.7924156004       -0.2746358689
 C         -0.3074298506        1.8240789397        0.6217435410
 C         -0.1071229709        2.2876931792        1.9123107713
 C          1.1440300290        2.7300803594        2.3117664416
 C          2.2072331491        2.6878221500        1.4239113117
 H          3.2012137190        3.0001586502        1.6995550519
 H          1.2962457288        3.0922448290        3.3155523117
 H         -0.9316699710        2.2917615687        2.6077539712
 H         -1.2753794705        1.4569091396        0.3170192408
 H          0.6120819997        1.4342010007       -1.2839427890
 H          2.9579008801        0.1630374617       -2.1416096293
 H          4.4398700297        0.3452496407        1.1433118009
 H          3.5391064598       -0.9249554003        3.0810835503
 H          1.5271240202       -2.3201706807        2.8120193395
 C          0.0618100205       -2.7275875302        0.5534078892
 H         -0.2879771995       -3.0095886907        1.5585438090
 C          0.2781444209       -4.0160321398       -0.2298172613
 C          1.5268715311       -4.3310311791       -0.9929099613
 C          1.2342176211       -5.0502008198        0.2874129583
 H          0.9468653214       -6.0898288098        0.2475840179
 H          1.8265443010       -4.7869104500        1.1508377585
 H          1.4194350413       -4.8622967388       -1.9265412616
 H          2.3258757809       -3.6065658189       -0.9982873309
 H         -0.6467655489       -4.3855214198       -0.6616308416
 O         -1.8666819200       -1.5012555813        2.1682515395
