  62
        -98.94312458
 C          1.2260124790        1.1129308632       -0.0477641621
 C          1.7626471637        0.1173182497        0.8044222066
 C          2.6479073972       -0.8675108218        0.1689396806
 C          2.8924002379       -0.7759897047       -1.1509600566
 C          3.8162109594       -1.6788681522       -1.9151451093
 C          5.2438439887       -1.1153526938       -1.9471715958
 C          5.7724999110       -0.6924774372       -0.5764763916
 H          6.7966022357       -0.3403559715       -0.7181680706
 H          5.1881597717        0.1571760279       -0.2159335349
 C          5.7556602185       -1.8047496082        0.4814572595
 H          6.7080534442       -1.7938055823        1.0156905716
 H          5.6694511178       -2.7771433684       -0.0049485951
 C          4.6531395629       -1.6632430271        1.5324153963
 H          4.8648923411       -2.3658414006        2.3427305783
 H          4.6800935845       -0.6565564325        1.9567288377
 C          3.2261582683       -1.9432716647        1.0445005277
 H          3.1945421633       -2.9107512163        0.5392176995
 H          2.5787877085       -1.9902267924        1.9246782347
 H          5.2566987827       -0.2421045899       -2.6036451508
 H          5.9035366460       -1.8717496346       -2.3764519867
 H          3.8150515167       -2.6655297651       -1.4556275467
 H          3.4464792980       -1.7645702532       -2.9385343584
 O          2.3524001899        0.1883660812       -1.9401795090
 C          1.5057932211        1.1568860836       -1.4137859269
 O          1.0735706057        1.9681359653       -2.2540292983
 H         -0.8340978900        0.0722525367       -0.8155843349
 C         -1.5415201379        0.8710979600       -0.6312070507
 C         -1.1237416204        2.0154818702        0.0309257532
 C         -2.0631738510        3.0171390643        0.2587882029
 C         -3.3741364514        2.8700113817       -0.1581945422
 C         -3.7826160541        1.7245603725       -0.8199417168
 C         -2.8508224014        0.7290729511       -1.0666741339
 N         -3.2638677453       -0.4620393184       -1.7196910938
 S         -3.9859108370       -1.5556137028       -0.6716923004
 O         -4.1102989935       -2.7936952609       -1.4071461977
 O         -5.2084018504       -0.9725987942       -0.1824058105
 C         -2.8113285241       -1.7351468783        0.6577467800
 C         -2.8704028709       -0.8626627701        1.7258785174
 C         -1.8885975594       -0.9322043970        2.7006249093
 C         -0.8652953804       -1.8603185677        2.5885275845
 C         -0.8190373604       -2.7275955031        1.5080202601
 C         -1.7966461615       -2.6623324474        0.5284875028
 H         -1.7951513963       -3.3187654227       -0.3277764149
 H         -0.0174001671       -3.4438493231        1.4206878309
 H         -0.0914383128       -1.8941212143        3.3383159512
 H         -1.9135313838       -0.2538548817        3.5379969065
 H         -3.6792494257       -0.1515264215        1.7745344467
 H         -2.5000116190       -0.9298375819       -2.1887517486
 H         -4.8023325342        1.5816143795       -1.1375435580
 H         -4.0881962413        3.6557891539        0.0348185316
 H         -1.7625436400        3.9163095682        0.7721907898
 C          0.2889663284        2.1381803927        0.5531450748
 H          0.2610123293        1.9041654146        1.6288836528
 C          0.8369406781        3.5431340736        0.3781794657
 C          0.7223714992        4.5549847140        1.4778574551
 C          2.0527990494        3.9460057073        1.1566744778
 H          2.8008667524        4.5528820628        0.6691552426
 H          2.4609476113        3.2205540078        1.8455673852
 H          0.5548810367        5.5876144226        1.2111034864
 H          0.2435260271        4.2503214556        2.3963795422
 H          0.7654789783        3.8916245094       -0.6457479790
 O          1.5099888990        0.0550903322        2.0359413882
