  62
        -98.93990274
 C          1.8307929940        1.5370105414        0.3105150280
 C          2.0843665145        0.4862901103        1.2305990631
 C          3.0186304476       -0.5613467043        0.7961979046
 C          3.5791114821       -0.4719103894       -0.4231904672
 C          4.5370640660       -1.4687927366       -1.0074337534
 C          3.8011381812       -2.5489930996       -1.8117643940
 C          2.6305087984       -3.1825323127       -1.0602044381
 H          1.8519598535       -2.4298454834       -0.9121256005
 H          2.2049348772       -3.9541004398       -1.7058080694
 C          3.0081511096       -3.7954186893        0.2956834358
 H          2.5339254541       -4.7754500531        0.3791707215
 H          4.0863138845       -3.9519818182        0.3437577528
 C          2.5545052002       -2.9770225833        1.5057094500
 H          2.6671598632       -3.5996315680        2.3970529752
 H          1.4922483035       -2.7455884254        1.3999993534
 C          3.3205880430       -1.6723859599        1.7629545962
 H          3.0229041465       -1.3000258371        2.7476551315
 H          4.3930934853       -1.8772005148        1.7854773855
 H          4.5189357703       -3.3230342827       -2.0893662250
 H          3.4169387000       -2.0986132959       -2.7303326126
 H          5.1098111600       -1.9269993256       -0.2033805299
 H          5.2212021306       -0.9375910110       -1.6715748085
 O          3.2960175540        0.5317693787       -1.2892111897
 C          2.3969437162        1.5461144044       -0.9655947622
 O          2.2107841370        2.3519187613       -1.8950353578
 O          1.5550358563        0.4332978692        2.3718491551
 C          0.8641325929        2.6168861703        0.7677382670
 C         -0.5641982629        2.2056214690        0.5070548570
 C         -1.5740271037        2.4742825136        1.4240120943
 C         -2.8751631042        2.0675261203        1.1820058745
 C         -3.1873413183        1.3460320132        0.0438765277
 C         -2.1779401973        1.0435476399       -0.8611962603
 C         -0.8868332021        1.5009643246       -0.6428816323
 H         -0.1138689046        1.2817120336       -1.3673698089
 N         -2.4604424638        0.1991413468       -1.9512380140
 S         -3.1335698310       -1.2907947863       -1.5417880294
 O         -2.4678497836       -2.2614742073       -2.3836073963
 O         -4.5653900385       -1.2125991517       -1.6980730404
 C         -2.7501878366       -1.5524431739        0.1845061449
 C         -1.4403492079       -1.4498308915        0.6122904596
 C         -1.1685083540       -1.5355905460        1.9678518877
 C         -2.2010394606       -1.7619490736        2.8653843561
 C         -3.5051474483       -1.9019722546        2.4182585113
 C         -3.7868733648       -1.7793413681        1.0671224861
 H         -4.7902423003       -1.8418329478        0.6783365333
 H         -4.3044232738       -2.0845881697        3.1181859920
 H         -1.9809635702       -1.8224243793        3.9193312435
 H         -0.1596789650       -1.3847573206        2.3205112099
 H         -0.6492594706       -1.2823791966       -0.1030948345
 H         -1.6637487225        0.0586021340       -2.5568846799
 H         -4.1867841792        0.9898029219       -0.1490757089
 H         -3.6503925255        2.2948229489        1.8968834861
 H         -1.3310918920        2.9886512404        2.3415488923
 H          0.9889101981        2.6684372484        1.8611725139
 C          1.1855662376        3.9933709700        0.2041944074
 C          0.3817269088        4.6359709128       -0.8821730074
 C          0.3104747305        5.1714208463        0.5144202993
 H          0.7827102411        6.1178997039        0.7294591487
 H         -0.5976669947        4.9930767568        1.0688910125
 H          0.9133036285        5.1962544181       -1.6358013014
 H         -0.4702205316        4.0972846394       -1.2678764168
 H          2.2546889457        4.1777780877        0.1792725157
