  62
        -98.93543428
 C          1.0415549768        1.6189663988        0.4417687531
 C          1.6151493951        0.5578714460        1.1854356669
 C          2.8165732218       -0.0828423806        0.6189758421
 C          3.2836921391        0.3480054225       -0.5652636130
 C          4.4905179341       -0.1354869803       -1.3228982860
 C          4.1161930189       -1.2354458430       -2.3298886877
 C          4.1449007933       -2.6535944730       -1.7638890544
 H          3.7576952311       -3.3209488907       -2.5370246528
 H          5.1802373923       -2.9421135317       -1.5704879388
 C          3.3283878088       -2.8538187394       -0.4852772228
 H          2.3724720830       -2.3356099676       -0.5776457828
 H          3.1161852006       -3.9200860514       -0.3914928355
 C          4.0557865486       -2.3778613121        0.7809841845
 H          5.0978931180       -2.1679349526        0.5421590973
 H          4.0667622590       -3.1825700904        1.5193001796
 C          3.4281918489       -1.1615956767        1.4716422863
 H          2.6122021857       -1.4922482581        2.1220632646
 H          4.1754504073       -0.7003351487        2.1271668479
 H          3.1190234167       -1.0116250365       -2.7173684076
 H          4.8110887375       -1.1906568261       -3.1710059255
 H          4.8671525925        0.7276504045       -1.8762250768
 H          5.2645774500       -0.4738724897       -0.6405231946
 O          2.6523334371        1.3150168677       -1.2866074755
 C          1.5126615626        1.9566628539       -0.8280138077
 O          1.0444341868        2.7816818326       -1.6331461905
 O          1.1452270125        0.1605848720        2.2850860510
 C         -0.1892094147        2.2954695901        1.0201467826
 C         -1.3192322334        2.2082721569        0.0273988630
 C         -1.8498827946        3.2997460563       -0.6460230153
 C         -2.8642333431        3.1190811464       -1.5701397811
 C         -3.3813767118        1.8612030734       -1.8226661640
 C         -2.8596614976        0.7625793069       -1.1493463773
 C         -1.8315512672        0.9451988799       -0.2404708135
 H         -1.4145901945        0.0911308619        0.2729247529
 N         -3.3465898604       -0.5373263536       -1.3721778109
 S         -3.6819895131       -1.4888880265       -0.0311733876
 O         -4.6019217947       -2.4937972642       -0.5213562026
 O         -4.1539663823       -0.6846949983        1.0727191976
 C         -2.1427410782       -2.2755741123        0.3900801066
 C         -1.4861552513       -3.0062800877       -0.5803440150
 C         -0.3019120308       -3.6432148781       -0.2472480459
 C          0.2007563320       -3.5412433681        1.0415641155
 C         -0.4704913223       -2.8044298151        2.0039947639
 C         -1.6559908793       -2.1663728980        1.6774859197
 H         -2.2035253958       -1.5737880827        2.3933629494
 H         -0.0724535419       -2.7105905901        3.0014459221
 H          1.1243883601       -4.0350235275        1.2981601453
 H          0.2278662785       -4.2148780459       -0.9924416034
 H         -1.9098739207       -3.0633801517       -1.5693819845
 H         -4.0918199189       -0.5942549495       -2.0517709514
 H         -4.1781419108        1.7266752834       -2.5389345093
 H         -3.2628176527        3.9722013975       -2.0983208562
 H         -1.4511396520        4.2845801856       -0.4659179719
 H         -0.4599883923        1.6647007379        1.8836512154
 C          0.0352816551        3.6944691616        1.5704332778
 C          1.3481479255        4.0705884024        2.1888212995
 C          0.9097891929        4.7159325086        0.9101416731
 H          0.5948333298        5.7490000798        0.9429330487
 H          1.4056088997        4.4412298008       -0.0065503725
 H          1.3435634646        4.6588869869        3.0940734473
 H          2.1442304492        3.3413041730        2.1434002039
 H         -0.8546723802        4.0715409742        2.0663742212
