  62
        -98.93954722
 C          2.0888978450        0.1771284603       -1.1018898910
 C          2.9346835658       -0.9118776253       -0.7735922160
 C          4.3292998417       -0.5633421465       -0.4633156031
 C          4.7334941438        0.7178139013       -0.5102416770
 C          6.1234312804        1.2216910734       -0.2311640551
 C          6.4185755156        1.4427277962        1.2587768461
 C          6.5910329233        0.1670919003        2.0844363181
 H          7.3256660000       -0.4790583609        1.6028303831
 H          7.0032705461        0.4652771781        3.0505182363
 C          5.2915872737       -0.6147967432        2.3225541379
 H          4.4346871487        0.0316667185        2.1185322804
 H          5.2293404280       -0.9049714184        3.3738108895
 C          5.1588986341       -1.8910654869        1.4916508633
 H          5.9375064646       -2.5997756695        1.7822497739
 H          4.1900414262       -2.3450768918        1.7136319331
 C          5.2415166027       -1.6691814263       -0.0242816160
 H          6.2685820326       -1.4548549148       -0.3184182028
 H          4.9171414814       -2.5857830585       -0.5228283786
 H          5.6166573432        2.0488313423        1.6868998293
 H          7.3432292319        2.0208468428        1.3251567638
 H          6.8555678267        0.5308097778       -0.6501421339
 H          6.2152501304        2.1804561526       -0.7461304201
 O          3.8945731404        1.7346118365       -0.8458107975
 C          2.5610049292        1.4925460051       -1.1262770403
 O          1.9029022153        2.5191052289       -1.3935100515
 H         -1.5371080357        1.5681087923       -0.8810737344
 C         -1.2911567868        0.9013001522       -0.0684577167
 C         -0.2171766161        0.0306620571       -0.1787778244
 C          0.0756948073       -0.8116068570        0.8908311006
 C         -0.6842336692       -0.7707373692        2.0444492414
 C         -1.7610432742        0.0936091701        2.1475774716
 C         -2.0670045964        0.9319731640        1.0833637523
 N         -3.1636868739        1.8156580813        1.1489369639
 S         -4.3898770745        1.6098833800        0.0268654231
 O         -3.8801653698        1.8343928003       -1.3004837528
 O         -5.4577275694        2.4779189829        0.4681109026
 C         -4.8724197454       -0.0962614864        0.2247023028
 C         -4.1523928641       -1.0739243415       -0.4322511950
 C         -4.4741118727       -2.4040863439       -0.2140535963
 C         -5.5048387984       -2.7315579406        0.6535944355
 C         -6.2209761531       -1.7378960993        1.3040719748
 C         -5.8999179049       -0.4064219867        1.0941362062
 H         -6.4322426794        0.3983504402        1.5750500424
 H         -7.0245318875       -1.9962572514        1.9747922478
 H         -5.7515831721       -3.7679818319        0.8214645413
 H         -3.9161188731       -3.1748256911       -0.7214102553
 H         -3.3611694804       -0.7817903260       -1.1026385403
 H         -3.5656371713        1.8932072853        2.0730873497
 H         -2.3569610715        0.1236638444        3.0474047455
 H         -0.4423355505       -1.4243261648        2.8686192425
 H          0.9011376157       -1.5007126818        0.8009003495
 C          0.6154174404        0.0119590249       -1.4362358126
 H          0.3499707055        0.9096152405       -2.0168492670
 C          0.3356633641       -1.2033592181       -2.3136838586
 C         -0.6083619855       -2.2956858556       -1.9166453401
 C         -0.9975457572       -1.3273008834       -2.9903256499
 H         -1.0293582810       -1.6689336300       -4.0139855054
 H         -1.7393461833       -0.5751737745       -2.7602781003
 H         -0.3504137032       -3.3044942321       -2.2005211291
 H         -1.0978226573       -2.2233928919       -0.9578721498
 H          1.2019710050       -1.5025739821       -2.8925418585
 O          2.5692230890       -2.1140639581       -0.7360769660
