  62
        -98.94825630
 C         -1.1718661506       -1.2084039443       -0.0154971377
 C         -1.9345011634       -0.6714038665        1.0482684020
 C         -2.5779612400        0.6234638412        0.7888857505
 C         -2.4001611147        1.2189467685       -0.4045335149
 C         -3.0326173047        2.5158546346       -0.8177474267
 C         -4.3804615628        2.2810123642       -1.5139742999
 C         -5.3141054333        1.3422666521       -0.7500550873
 H         -6.2442356416        1.2747165076       -1.3182681437
 H         -4.8760091215        0.3418215605       -0.7293883115
 C         -5.6245838181        1.7868161636        0.6860526829
 H         -6.6960293695        1.6740988806        0.8643441245
 H         -5.3856041331        2.8439909812        0.8075565265
 C         -4.9068643602        0.9793548168        1.7694259090
 H         -5.3578592706        1.2268513050        2.7341757967
 H         -5.0670641481       -0.0882482234        1.5982936265
 C         -3.3976134508        1.2245985836        1.8952572998
 H         -3.2024620046        2.2960205389        1.9815205732
 H         -3.0559005532        0.7430271979        2.8166710344
 H         -4.1910726823        1.8480171837       -2.4986755203
 H         -4.8685444656        3.2470236429       -1.6547870540
 H         -3.1691897982        3.1419545633        0.0620409423
 H         -2.3591196923        3.0248811380       -1.5093650137
 O         -1.6493566238        0.6789592067       -1.3976710709
 C         -1.0066272138       -0.5414454660       -1.2284718266
 O         -0.3372216990       -0.9084426166       -2.2107590276
 H          1.0263782279       -0.7213491051        1.4242307860
 C          1.6286432079       -1.3537159533        0.7875669086
 C          1.0230691574       -2.3644616322        0.0493018236
 C          1.8213490615       -3.1753774222       -0.7467447041
 C          3.1882523972       -2.9672542255       -0.8094746288
 C          3.7846057665       -1.9535250099       -0.0835343852
 C          2.9965981883       -1.1425140728        0.7262486816
 N          3.5819986047       -0.1257057993        1.5021800111
 S          2.9100195358        1.4030700590        1.5310581829
 O          3.9441516110        2.2339043174        2.1097067332
 O          1.6470877849        1.3867226722        2.2238967293
 C          2.6808989218        1.8337580952       -0.1818510675
 C          3.7933637096        2.1544175176       -0.9357440096
 C          3.6299515661        2.4359614612       -2.2817609329
 C          2.3652273731        2.3849434905       -2.8490891203
 C          1.2586058936        2.0667330112       -2.0779684319
 C          1.4171904990        1.7871646768       -0.7302254569
 H          0.5820871607        1.5324660936       -0.0958648055
 H          0.2753162803        2.0101474862       -2.5171092190
 H          2.2377437399        2.5949615130       -3.8992932544
 H          4.4862310019        2.6895512391       -2.8857448091
 H          4.7570876454        2.1946441904       -0.4544548728
 H          4.5861054119       -0.0649945611        1.4094521250
 H          4.8505846091       -1.7920998525       -0.1333837261
 H          3.7963768017       -3.6014207186       -1.4362070327
 H          1.3737638366       -3.9694407582       -1.3208821506
 C         -0.4703591309       -2.5395435016        0.1787818110
 H         -0.6856018990       -2.8328514031        1.2176050200
 C         -1.0482153667       -3.5851393567       -0.7519104749
 C         -1.0248999691       -5.0335773779       -0.3678522547
 C         -2.3182915816       -4.2771800302       -0.3606642473
 H         -3.0475220907       -4.4903824940       -1.1278573008
 H         -2.7532330447       -4.0130993921        0.5925587323
 H         -0.5844116716       -5.2912886103        0.5834334771
 H         -0.8688258954       -5.7702939374       -1.1412937020
 H         -0.9217698283       -3.3280378141       -1.7974458892
 O         -2.0700627185       -1.2479072686        2.1621147527
