  62
        -98.93820491
 C         -2.5504111922       -1.3062741201        0.1380235967
 C         -2.6320364199       -0.3830941661       -0.9299845677
 C         -3.5026197690        0.7899276497       -0.7193862250
 C         -4.1499419784        0.9308385313        0.4494748761
 C         -5.0181010835        2.0777642569        0.8864340302
 C         -4.1929915535        3.1101231296        1.6735617218
 C         -3.5030601256        4.1721859758        0.8182383214
 H         -4.2551722178        4.8558012450        0.4187176226
 H         -2.8522260530        4.7495973877        1.4788422853
 C         -2.6654264632        3.6356605887       -0.3458165197
 H         -2.0764467132        2.7775030984       -0.0142477524
 H         -1.9550874208        4.4136718457       -0.6338870110
 C         -3.5102238081        3.2555116461       -1.5711803783
 H         -3.0894045606        3.7316883092       -2.4593377342
 H         -4.5143658233        3.6613981737       -1.4491061793
 C         -3.5939685009        1.7515559045       -1.8731424570
 H         -4.5188831014        1.5493813233       -2.4235282784
 H         -2.7686561347        1.4701876793       -2.5347049180
 H         -4.8511257977        3.6207470902        2.3793930666
 H         -3.4450518645        2.5671324293        2.2574448231
 H         -5.5121255789        2.5353390238        0.0346318917
 H         -5.7759137094        1.6588241239        1.5516268533
 O         -4.0432036696        0.0208328622        1.4552966232
 C         -3.2493910553       -1.1010701844        1.3323420645
 O         -3.2505251440       -1.8404485685        2.3364417429
 O         -2.0142329165       -0.5041256354       -2.0234297705
 C         -1.6830050852       -2.5574763267        0.1015993704
 C         -0.2473360424       -2.1815060207        0.3814431119
 C          0.3504372438       -2.5102436113        1.5926926241
 C          1.6475335035       -2.1144631864        1.8684744392
 C          2.3709525501       -1.3777762460        0.9474955241
 C          1.7780428782       -1.0351523740       -0.2603795108
 C          0.4848768442       -1.4488224446       -0.5420070307
 H          0.0231201949       -1.1608832167       -1.4747115344
 N          2.4972988352       -0.2622992956       -1.1942094108
 S          3.0596998393        1.2252678798       -0.6450010406
 O          2.2345589409        1.7422381347        0.4234282296
 O          3.1796728761        2.0530943669       -1.8254238517
 C          4.6905004438        0.8529074339       -0.0339366357
 C          5.5903436548        0.2650502000       -0.9015197805
 C          6.8645737766       -0.0307273078       -0.4445287165
 C          7.2163818689        0.2673036242        0.8637136470
 C          6.3027947268        0.8611402985        1.7210418831
 C          5.0258549280        1.1585711695        1.2703922718
 H          4.2796204747        1.6138036169        1.9020521973
 H          6.5779287458        1.0923678986        2.7375923592
 H          8.2084867321        0.0353913899        1.2175571249
 H          7.5778664791       -0.4923099418       -1.1081643282
 H          5.2769055608        0.0536720430       -1.9101444945
 H          1.9939108424       -0.1355113738       -2.0618468647
 H          3.3779172630       -1.0575452434        1.1604504608
 H          2.0983135039       -2.3773794537        2.8133156648
 H         -0.2191852954       -3.0607928027        2.3275112481
 H         -2.0333850937       -3.1814656944        0.9343764640
 C         -1.8260896454       -3.3501865569       -1.1821198241
 C         -1.4241152573       -4.7932636286       -1.1900499324
 C         -2.8729555924       -4.4180545332       -1.2675848494
 H         -3.3943578578       -4.5533522737       -2.2032611522
 H         -3.4908343443       -4.5829620446       -0.3966911926
 H         -0.9477886018       -5.1898071769       -2.0734108608
 H         -1.0596324270       -5.2151431608       -0.2656813859
 H         -1.6401232408       -2.7691721717       -2.0752421166
