  62
        -98.94142486
 C         -2.4512371417       -1.0017545870       -0.5568851395
 C         -3.4276317621       -0.4315374288        0.3031766375
 C         -3.8522814352        0.9365683277       -0.0056848503
 C         -3.3285046307        1.5699922603       -1.0702954530
 C         -3.6634797506        2.9633648599       -1.5275920433
 C         -2.8768761543        4.0595636385       -0.7957517909
 C         -3.3074018545        4.3125035527        0.6496991919
 H         -2.8341653178        5.2441921192        0.9658726036
 H         -4.3865052584        4.4655716215        0.6854949635
 C         -2.9102116009        3.2022795165        1.6330223207
 H         -2.1277191598        2.5813883266        1.1881554369
 H         -2.4817185121        3.6495302264        2.5330997056
 C         -4.0655255486        2.3057728161        2.0801156996
 H         -3.6610325809        1.5335893175        2.7396517343
 H         -4.7849625333        2.8955520968        2.6524574842
 C         -4.8082111692        1.6083934064        0.9329042504
 H         -5.4286936056        2.3249911661        0.3954409137
 H         -5.4519834595        0.8363389819        1.3611443519
 H         -1.8145842812        3.8029272457       -0.8184322127
 H         -3.0075876049        4.9865905003       -1.3588474242
 H         -4.7328745173        3.1411217909       -1.4114892796
 H         -3.4145007760        3.0110563651       -2.5898267709
 O         -2.4157762917        0.9839502667       -1.8862402678
 C         -1.9284801440       -0.2913936709       -1.6373919347
 O         -1.0601333716       -0.6515819322       -2.4592800355
 O         -3.9258786042       -1.0462808561        1.2834513598
 C         -1.9724518745       -2.4005670439       -0.2002560923
 C         -0.6866399985       -2.3093032229        0.5869574175
 C         -0.6330908584       -2.6891738698        1.9226931924
 C          0.5356509873       -2.5460389666        2.6509176821
 C          1.6716048736       -2.0154327362        2.0658770467
 C          1.6244324585       -1.6284472862        0.7334789194
 C          0.4587876983       -1.7887733451        0.0010687611
 H          0.4276129623       -1.4700776255       -1.0307004535
 N          2.7735331420       -1.0549294203        0.1299241128
 S          3.1052635432        0.5156824962        0.6691730727
 O          3.2634928232        0.4809651008        2.1004746639
 O          2.1142994442        1.4423288601        0.1598769757
 C          4.6808695419        0.8062010597       -0.1097296483
 C          5.8158309680        0.2904830692        0.4857921123
 C          7.0405893690        0.4766081320       -0.1347245809
 C          7.1091203845        1.1692775116       -1.3345009223
 C          5.9610494620        1.6812985284       -1.9196526792
 C          4.7325218688        1.4974450155       -1.3043736082
 H          3.8151012165        1.8840503527       -1.7195407446
 H          6.0165802692        2.2213401720       -2.8512128679
 H          8.0632421828        1.3131401881       -1.8163688015
 H          7.9358945350        0.0814610526        0.3173393400
 H          5.7139554314       -0.2340684016        1.4211203698
 H          2.6474221871       -0.9985016512       -0.8742428923
 H          2.5786635278       -1.8719257589        2.6290141628
 H          0.5601265820       -2.8435272184        3.6883635702
 H         -1.5235904082       -3.0769798675        2.3959209956
 H         -2.7446088848       -2.8061348585        0.4672914091
 C         -1.8333609787       -3.3264014576       -1.3914838734
 C         -1.8461342769       -4.8071286713       -1.1626417467
 C         -3.0126860653       -4.1410705183       -1.8269203833
 H         -3.1666121787       -4.2975571308       -2.8839437205
 H         -3.9285075178       -4.0344607935       -1.2639828108
 H         -1.1966692098       -5.4255409088       -1.7626918019
 H         -1.9715301108       -5.1544700698       -0.1483431820
 H         -1.1846813854       -2.9406221573       -2.1666908745
