  62
        -98.94053958
 C         -2.3724858196       -0.7493549702       -0.1017913393
 C         -3.5413902094       -1.0462356707        0.6390135308
 C         -4.8033880596       -0.5797801707        0.0547954112
 C         -4.7932317299        0.0650123697       -1.1263124286
 C         -6.0005249702        0.5796324597       -1.8626234882
 C         -6.4764648203        1.9614475295       -1.3934376877
 C         -7.1602207401        1.9845691289       -0.0257993676
 H         -7.6314010503        2.9637418088        0.0801462528
 H         -7.9540295600        1.2373320987       -0.0051198777
 C         -6.2112008199        1.7631681787        1.1602817822
 H         -5.1803474900        1.9255904990        0.8367301721
 H         -6.4219067999        2.5002235684        1.9384875625
 C         -6.3151891395        0.3811354984        1.8054848417
 H         -5.5760738394        0.3208063183        2.6085375316
 H         -7.3052797994        0.2573121081        2.2496785019
 C         -6.0626726195       -0.7857303712        0.8416096513
 H         -6.9135374195       -0.9126185811        0.1728189714
 H         -5.9402240892       -1.6976421614        1.4310616110
 H         -5.6207896605        2.6404950297       -1.3849547176
 H         -7.1865857405        2.3306779296       -2.1369337074
 H         -6.8169111200       -0.1375595804       -1.7735577884
 H         -5.7142353203        0.6528150602       -2.9139365783
 O         -3.6484042201        0.3133129302       -1.8173434987
 C         -2.4110267499       -0.0664669298       -1.3172226590
 O         -1.4468585101        0.2517637007       -2.0389823691
 O         -3.5294721591       -1.6679604710        1.7354730106
 C         -1.0272153394       -1.1888532901        0.4439052103
 C         -0.1143573696       -0.0021474700        0.6303858306
 C         -0.5968057597        1.1238520297        1.2939276211
 C          0.2107605101        2.2254327898        1.4965350113
 C          1.5241474400        2.2228956202        1.0597824311
 C          2.0169838801        1.1041698805        0.4001637006
 C          1.1983011603        0.0027781104        0.1879595704
 H          1.6092151104       -0.8489036994       -0.3273402500
 N          3.3388188900        1.0741817809       -0.0724037496
 S          4.1742547203       -0.3922516490       -0.0241222602
 O          3.8575308203       -1.1546544686       -1.2053676404
 O          3.9454740207       -1.0498411495        1.2426220396
 C          5.8579187902        0.1897378014       -0.1199149603
 C          6.3873747499        0.4951410119       -1.3596295103
 C          7.6868077698        0.9709897422       -1.4341373103
 C          8.4310408500        1.1332251419       -0.2748886504
 C          7.8869780603        0.8208490514        0.9618660496
 C          6.5875250204        0.3455894311        1.0437182796
 H          6.1265100506        0.0806727007        1.9816599296
 H          8.4693326604        0.9444183912        1.8606871195
 H          9.4426391899        1.5022485521       -0.3362736504
 H          8.1141041596        1.2119492126       -2.3941358003
 H          5.7747409098        0.3439191421       -2.2332099102
 H          3.9004687400        1.8390451309        0.2757946006
 H          2.1572051799        3.0821105902        1.2213452813
 H         -0.1813618800        3.0918982595        2.0078582117
 H         -1.6196304497        1.1221982594        1.6464202812
 H         -1.2382382792       -1.6132722105        1.4377456902
 C         -0.4327648294       -2.2749353497       -0.4275386801
 C          0.5169946209       -3.2760232997        0.1569054594
 C         -0.8689155791       -3.6944534299       -0.2297274405
 H         -0.9955435391       -4.3207970496       -1.0999045607
 H         -1.5828271189       -3.8880383603        0.5575196795
 H          1.3493372509       -3.6077669494       -0.4463356609
 H          0.7512674711       -3.1878176800        1.2074125794
 H         -0.2572900296       -1.9421436093       -1.4452794500
