  62
        -98.93442397
 C         -2.0088000330       -0.9720427120        0.4305263081
 C         -2.7380856852        0.0038310665        1.1522939234
 C         -4.1653081026        0.1733966743        0.8209914901
 C         -4.6984365357       -0.6032797732       -0.1402089089
 C         -6.1057944662       -0.5973760983       -0.6757187462
 C         -6.3795001015        0.5894158103       -1.6127531802
 C         -5.8571204885        1.9341717446       -1.1144463859
 H         -4.7785861240        1.8656712709       -0.9605633443
 H         -6.0246031764        2.6692929719       -1.9061645682
 C         -6.5195289617        2.4587580198        0.1573748364
 H         -6.1267755191        3.4631427445        0.3358388771
 H         -7.5952781279        2.5486336651       -0.0094188154
 C         -6.2900761603        1.6295729493        1.4231856783
 H         -6.9292535536        0.7508014441        1.4399134054
 H         -6.5902312646        2.2470403331        2.2749219629
 C         -4.8386515992        1.2279558613        1.6657660231
 H         -4.7412318115        0.8801892145        2.7014134769
 H         -4.2034782882        2.1190834374        1.6024203320
 H         -7.4557926754        0.6541777301       -1.7815412440
 H         -5.8993221598        0.3808382908       -2.5719730558
 H         -6.2282394157       -1.5228642498       -1.2428425465
 H         -6.8181054254       -0.6149966111        0.1438198559
 O         -3.9591930539       -1.5280129111       -0.8135046125
 C         -2.6115794981       -1.7384191442       -0.5671913885
 O         -2.1010747293       -2.6139514744       -1.2884320012
 O         -2.2150688207        0.7139290810        2.0548956561
 C         -0.5445949410       -1.1322789656        0.7960718784
 C          0.3233496218       -0.2425668814       -0.0557626885
 C          0.2335247303       -0.2622350610       -1.4440999665
 C          1.0484689661        0.5499531254       -2.2118318387
 C          1.9699212161        1.3925289644       -1.6142770958
 C          2.0687144546        1.4177776550       -0.2299666436
 C          1.2480184980        0.6029884136        0.5393852117
 H          1.3185664452        0.6387856782        1.6181437280
 N          3.0285791676        2.2532755400        0.3777483883
 S          4.6255712197        1.9367656126       -0.0318505808
 O          5.4196928565        2.5465281591        1.0098072100
 O          4.8707292571        2.3956078897       -1.3747105199
 C          4.7387341391        0.1590996446        0.0466509815
 C          4.5401979755       -0.5874520154       -1.0973945165
 C          4.5226766831       -1.9696171970       -0.9991470057
 C          4.7027739520       -2.5779268634        0.2330882249
 C          4.9096867095       -1.8140311941        1.3717546226
 C          4.9207825713       -0.4316569337        1.2815669450
 H          5.0796517450        0.1978102349        2.1427165960
 H          5.0523791612       -2.2909959370        2.3281564361
 H          4.6780741176       -3.6532504096        0.3070050503
 H          4.3617022944       -2.5669001708       -1.8820708860
 H          4.4079287288       -0.0780476110       -2.0375145520
 H          2.9363748266        2.3005515392        1.3828189569
 H          2.6186117749        2.0256361390       -2.1979915597
 H          0.9661762980        0.5262558806       -3.2880152126
 H         -0.4775287884       -0.9261673245       -1.9122195827
 H         -0.4777825613       -0.7616864444        1.8313140156
 C         -0.0733309158       -2.5805223934        0.8007983573
 C          0.9375245323       -3.1279415667       -0.1576828742
 C          1.3116296256       -2.9089109511        1.2752316592
 H          1.4496797145       -3.7665554714        1.9154303424
 H          1.9694424727       -2.0808554433        1.4940601235
 H          0.7899103951       -4.1365850581       -0.5112818951
 H          1.3542365149       -2.4637685016       -0.8981208628
 H         -0.8643494208       -3.2600788484        1.1002461240
