  62
        -98.93841485
 C         -2.5354094290       -0.1832618025        0.0938458576
 C         -2.3009189440       -1.2395074162       -0.8124776929
 C         -1.6210480102       -2.4379178573       -0.2872249853
 C         -1.2804357133       -2.4675380021        1.0149707612
 C         -0.5202126268       -3.5317149520        1.7620705271
 C          0.9833771223       -3.4873085105        1.4582065439
 C          1.3339469292       -3.4442871447       -0.0263794863
 H          0.9494620636       -2.5160306724       -0.4552315347
 H          2.4240186900       -3.3937975615       -0.1047105824
 C          0.8588330618       -4.6399051928       -0.8502474527
 H          1.2468341055       -5.5577032566       -0.4030473582
 H          1.3048399099       -4.5380993174       -1.8428489653
 C         -0.6561108265       -4.7822639290       -1.0296398790
 H         -1.1181921825       -5.2562256010       -0.1674198869
 H         -0.8210089844       -5.4528836252       -1.8779192113
 C         -1.3796927394       -3.4797473846       -1.3531863789
 H         -0.8530681591       -2.9663977806       -2.1668545895
 H         -2.3711486240       -3.7179605495       -1.7574678454
 H          1.4547683600       -4.3552044447        1.9239723627
 H          1.3933585191       -2.5821425906        1.9139279289
 H         -0.9276471740       -4.5158403186        1.5511568509
 H         -0.6645491460       -3.3277045173        2.8255135524
 O         -1.5756395976       -1.4442225761        1.8666589162
 C         -2.1508899313       -0.2676540261        1.4316521460
 O         -2.2881395094        0.6011248654        2.3153669839
 O         -2.6298114024       -1.1813109698       -2.0316554721
 C         -3.0745866356        1.1335645264       -0.4314691400
 C         -2.0132102546        2.1998400989       -0.2862234232
 C         -2.2939080697        3.5304324704       -0.0063530944
 C         -1.2664475736        4.4530613345        0.1103848582
 C          0.0552907254        4.0705924127       -0.0209879202
 C          0.3465835593        2.7381740629       -0.2979340514
 C         -0.6848310761        1.8321320634       -0.4626451708
 H         -0.4446862132        0.8091173759       -0.7136751050
 N          1.6820590503        2.2928076344       -0.3592302654
 S          2.0376727181        0.6556130844       -0.3698404312
 O          1.7599768301        0.0576808025       -1.6607117656
 O          1.4160082523        0.0478269419        0.7776919797
 C          3.8015624713        0.7407362511       -0.1240971936
 C          4.6609117077        0.4918889464       -1.1765552983
 C          6.0277096277        0.5871676404       -0.9641434007
 C          6.5088674531        0.9301045637        0.2900469157
 C          5.6338494136        1.1752063741        1.3383500284
 C          4.2670855237        1.0804878462        1.1321149502
 H          3.5481472733        1.2526363969        1.9165611282
 H          6.0110461641        1.4387865786        2.3132827479
 H          7.5723786581        1.0042353285        0.4532610181
 H          6.7099806841        0.3935880072       -1.7760972813
 H          4.2400308262        0.2221208482       -2.1318086124
 H          2.3023151671        2.8524227729       -0.9243589658
 H          0.8550479301        4.7844080404        0.0958061259
 H         -1.5010524215        5.4851027626        0.3227030954
 H         -3.3167815486        3.8451676801        0.1230854427
 H         -3.2508784050        0.9698977951       -1.5063627017
 C         -4.3862066006        1.5020491239        0.2290383054
 C         -5.4305127875        2.2635052618       -0.5302199800
 C         -5.6393736560        0.8130588760       -0.2188604609
 H         -6.3724224006        0.5419830481        0.5257660997
 H         -5.5482998345        0.0973182232       -1.0230573051
 H         -6.0262865310        2.9900113379        0.0014406031
 H         -5.2098429078        2.5326479235       -1.5522503263
 H         -4.2736806898        1.6984189106        1.2891304888
