  62
        -98.93120164
 C          2.0758637346        0.7435155366        0.5790744049
 C          3.1832694383        0.8568788819       -0.2930698056
 C          4.2089764406       -0.2037961199       -0.2051451114
 C          4.0494905787       -1.2035321017        0.6790097149
 C          4.9478194296       -2.3849246206        0.9458992398
 C          6.4544662063       -2.0953350485        1.0357985218
 C          7.2512259595       -2.6478404171       -0.1472079683
 H          8.2875984431       -2.7913059514        0.1664799271
 H          6.8505422154       -3.6298498526       -0.4070180255
 C          7.2634019253       -1.7616260134       -1.3914864379
 H          7.8859773314       -0.8842262436       -1.2036663064
 H          7.7361503964       -2.3291233475       -2.1965176478
 C          5.8902095386       -1.2843158288       -1.8687013816
 H          5.1573405019       -2.0865039661       -1.7911198222
 H          5.9749325108       -1.0323452382       -2.9279219465
 C          5.3827002073       -0.0357874756       -1.1321209600
 H          6.2028676359        0.4294645180       -0.5778066415
 H          5.0524726737        0.7106120923       -1.8609618360
 H          6.6198589566       -1.0239124089        1.1373783117
 H          6.8301327529       -2.5675712330        1.9449666909
 H          4.5921631723       -2.8014646798        1.8910737209
 H          4.7601909463       -3.1436864049        0.1821647643
 O          2.9559639970       -1.2825116767        1.4921143302
 C          1.9599607088       -0.3273823831        1.4693713234
 O          1.0398112759       -0.5311538414        2.2886468534
 H         -1.6080367111        0.9053152157        0.8276898765
 C         -1.3289587000        1.0986031873       -0.1975978821
 C         -0.0436963516        1.5299246890       -0.4948539847
 C          0.2992715388        1.7513012317       -1.8247313127
 C         -0.6271478686        1.5379766423       -2.8286251933
 C         -1.9063805714        1.1042590447       -2.5295658464
 C         -2.2612330013        0.8851869792       -1.2033404669
 N         -3.5710457149        0.4917888061       -0.8758608069
 S         -3.8250809787       -0.5545968808        0.4239765777
 O         -3.7081184272        0.1902381647        1.6518960749
 O         -2.9887491734       -1.7270208090        0.2897065215
 C         -5.5357142823       -0.9752613691        0.1446565278
 C         -5.8539849653       -2.1620760453       -0.4876677531
 C         -7.1871543668       -2.4588515386       -0.7250429426
 C         -8.1735368011       -1.5673169265       -0.3311531058
 C         -7.8387286597       -0.3802594378        0.3035754919
 C         -6.5081167743       -0.0782018112        0.5450820068
 H         -6.1998977220        0.8263661833        1.0427251923
 H         -8.6084328701        0.3090780157        0.6110176756
 H         -9.2099746050       -1.8004304863       -0.5173886062
 H         -7.4504809975       -3.3824360707       -1.2149077338
 H         -5.0537417525       -2.8281894371       -0.7680429871
 H         -4.0958569557        0.1903302209       -1.6863459532
 H         -2.6274323943        0.9385062231       -3.3157413291
 H         -0.3483545304        1.7072815257       -3.8577878572
 H          1.3018201052        2.0710305335       -2.0620135197
 C          0.9418864826        1.7560106816        0.6273057583
 H          0.4141071198        1.5568196649        1.5706027613
 C          1.4237956980        3.1941754676        0.6455425375
 C          0.5030090796        4.2549561505        1.1652822720
 C          1.7091029659        3.8534872621        1.9593796015
 H          2.5402071858        4.5397934708        2.0212196063
 H          1.5584759283        3.2679278860        2.8552497796
 H          0.5034143998        5.2196594103        0.6818793909
 H         -0.4664780161        3.9410245060        1.5233010561
 H          2.0673500475        3.4448369121       -0.1866826969
 O          3.3390930609        1.7945607852       -1.1195227424
