  62
        -98.94071396
 C         -1.7349974346       -0.3493536808        0.4752906582
 C         -2.9245361651       -0.4920228447        1.2343624196
 C         -4.1555814874       -0.7236732643        0.4712111395
 C         -4.1058886152       -0.7765103077       -0.8720189308
 C         -5.2701357078       -1.0248851427       -1.7923065239
 C         -6.0882989352        0.2324932475       -2.1169906397
 C         -6.9588562334        0.7557550623       -0.9737677028
 H         -7.6362857075        1.4980124668       -1.4007088412
 H         -7.5717773129       -0.0572698569       -0.5833505118
 C         -6.1734133631        1.4073918185        0.1730008985
 H         -5.1637110421        1.6479395237       -0.1681172936
 H         -6.6494546132        2.3504824711        0.4511055899
 C         -6.0783843195        0.5574309273        1.4401523471
 H         -5.4709577264        1.0976683335        2.1709445364
 H         -7.0749532070        0.4218027439        1.8661984282
 C         -5.4455638363       -0.8240649877        1.2279662637
 H         -5.2242503554       -1.2532162725        2.2083333787
 H         -6.1421323656       -1.4809514188        0.7073627422
 H         -5.4046231538        1.0193727606       -2.4440514702
 H         -6.7404448059       -0.0117436903       -2.9587034552
 H         -4.8525382599       -1.4131485782       -2.7236950550
 H         -5.9234861983       -1.7837484616       -1.3608080164
 O         -2.9485955022       -0.6193260483       -1.5654946054
 C         -1.7406791404       -0.3780220403       -0.9203705641
 O         -0.7819765418       -0.2157247594       -1.6967894255
 O         -2.9552698234       -0.4251238681        2.4921523361
 C         -0.4465080572       -0.0845173196        1.2324899549
 C          0.3002933731        1.0687842515        0.6117072238
 C         -0.3512149923        2.2930162184        0.4772613623
 C          0.2856618885        3.3745035267       -0.0969973815
 C          1.5982018302        3.2686316991       -0.5246756864
 C          2.2611826271        2.0575023002       -0.3839517487
 C          1.6097789120        0.9654820273        0.1732362546
 H          2.1363986033        0.0292695544        0.2452192425
 N          3.5919987928        1.9063357536       -0.8042300955
 S          4.6647618965        1.1032651358        0.1984245549
 O          4.3344166988        1.2976409910        1.5915230877
 O          5.9720547539        1.5705467940       -0.2128076432
 C          4.5138611306       -0.6170012019       -0.2321423268
 C          4.4845154674       -0.9706487623       -1.5663280375
 C          4.4147285281       -2.3136433959       -1.9001541113
 C          4.3831379927       -3.2750368937       -0.9013497832
 C          4.4157994250       -2.9034479059        0.4341591484
 C          4.4825170833       -1.5614881825        0.7746720613
 H          4.5003947753       -1.2270740300        1.7998524667
 H          4.3878923489       -3.6520577979        1.2101293159
 H          4.3286761975       -4.3197343320       -1.1644297647
 H          4.3843154956       -2.6067420037       -2.9371843870
 H          4.5103787238       -0.1975637506       -2.3158695153
 H          4.0077101976        2.7351359194       -1.2039829070
 H          2.1011676255        4.1148790442       -0.9680293272
 H         -0.2380269967        4.3127055487       -0.2051460564
 H         -1.3736765066        2.3801491044        0.8203178414
 H         -0.7810221948        0.2355448570        2.2344611934
 C          0.4205094183       -1.3171380375        1.4412644178
 C         -0.1816648331       -2.6886397005        1.4886277338
 C          0.6961231905       -2.2956160570        0.3403099002
 H          1.6839284205       -2.7278406523        0.2759265845
 H          0.2399312965       -2.1062725235       -0.6182388728
 H          0.2007075196       -3.3901155272        2.2146641903
 H         -1.2445112916       -2.7749846003        1.3152248564
 H          1.2326083920       -1.1250632994        2.1369824865
