  62
        -98.94143682
 C         -2.3073857886       -1.0961005050       -0.5745570933
 C         -3.6093129700       -0.9317785751       -0.0367664489
 C         -4.3073594125        0.3041946097       -0.4038524004
 C         -3.7017089662        1.1984132367       -1.2061126319
 C         -4.2875654855        2.4995997047       -1.6830838514
 C         -4.1303129500        3.6560644969       -0.6862536717
 C         -5.0281552706        3.5764929120        0.5490752177
 H         -6.0618857233        3.4254577291        0.2365928842
 H         -4.9758938749        4.5474749445        1.0455916422
 C         -4.6277942101        2.4874608752        1.5543518714
 H         -4.6411723805        2.9022018136        2.5649187468
 H         -3.6016758623        2.1670591571        1.3566502655
 C         -5.5394371537        1.2601573493        1.5567584188
 H         -6.5399961414        1.5481619486        1.8867154324
 H         -5.1412091244        0.5404602811        2.2765088215
 C         -5.6566112498        0.5567820563        0.1982677521
 H         -6.2712144644        1.1482817358       -0.4797685707
 H         -6.1376724566       -0.4117787663        0.3544596818
 H         -4.3642079377        4.5802081453       -1.2198552570
 H         -3.0845086401        3.7085561420       -0.3736311089
 H         -5.3431063051        2.3619265394       -1.9189468053
 H         -3.7564364388        2.7617514993       -2.6005879671
 O         -2.4536635950        1.0028345504       -1.7062791107
 C         -1.7166534732       -0.1300095182       -1.3892373549
 O         -0.5823430070       -0.1510425852       -1.9055907121
 O         -4.1626087025       -1.7817730769        0.7100628254
 C         -1.5295976504       -2.3431683044       -0.1847184957
 C         -0.4160367625       -1.9144471211        0.7383005081
 C         -0.6921248696       -1.7069544385        2.0870316338
 C          0.2821390276       -1.2253887374        2.9412480724
 C          1.5493486911       -0.9315368265        2.4679891677
 C          1.8305865670       -1.1268515942        1.1229822892
 C          0.8569743857       -1.6300035722        0.2700908099
 H          1.0839117481       -1.7599700877       -0.7761716339
 N          3.1143253141       -0.8190093398        0.6257569853
 S          3.7189025958        0.7011501758        1.0554326921
 O          4.2993134377        0.6002557301        2.3720515368
 O          2.6978970569        1.7133440071        0.8963582278
 C          5.0073956922        0.9148954508       -0.1564020313
 C          6.2948631706        0.5156690224        0.1467849051
 C          7.2839930425        0.6615778899       -0.8130336954
 C          6.9703717134        1.1995287495       -2.0521747097
 C          5.6728134463        1.5949198893       -2.3420480928
 C          4.6785103615        1.4509193876       -1.3873150859
 H          3.6580540138        1.7520249968       -1.5679336515
 H          5.4308949511        2.0136360393       -3.3057915560
 H          7.7413498211        1.3136471544       -2.7977322979
 H          8.2940967079        0.3568062393       -0.5919120015
 H          6.4908234629        0.1104663956        1.1256798376
 H          3.1468850247       -0.9265566531       -0.3800748623
 H          2.3135399518       -0.5330961790        3.1158286400
 H          0.0532354315       -1.0686461237        3.9848889622
 H         -1.6890523989       -1.9103034378        2.4530869653
 H         -2.2351972469       -2.9559674303        0.3920204020
 C         -1.0647120009       -3.1361207357       -1.3873840841
 C         -0.5804605448       -4.5411370108       -1.1933892055
 C         -1.8932654955       -4.2874583100       -1.8694984749
 H         -1.9679019423       -4.4567355208       -2.9332123549
 H         -2.8001496168       -4.5121054973       -1.3276198171
 H          0.2476059685       -4.8892791384       -1.7914224985
 H         -0.5950894990       -4.9364553265       -0.1890266597
 H         -0.5783916795       -2.5301701951       -2.1417596496
