  62
        -98.94780841
 C          0.7743809119        1.2241234135        0.5926236148
 C          1.1835934525        0.6965913098       -0.6558497621
 C          2.1276945881       -0.4256829360       -0.5903724764
 C          2.5012992180       -0.9168178148        0.6046252340
 C          3.4943093563       -2.0231472215        0.8369721375
 C          4.9556485049       -1.5516564890        0.8222325695
 C          5.5137768857       -1.2014366208       -0.5579875073
 H          6.5964631285       -1.1095995604       -0.4504308036
 H          5.3242410176       -2.0259243970       -1.2457288710
 C          4.9665627687        0.1036855949       -1.1528302538
 H          5.7920562665        0.6910882634       -1.5614487472
 H          4.5104330406        0.7026120282       -0.3610039848
 C          3.9474692912       -0.0886790419       -2.2761692379
 H          3.6008693306        0.8973715485       -2.5953306769
 H          4.4300406175       -0.5686833113       -3.1303063854
 C          2.7187584447       -0.9168483471       -1.8768501117
 H          1.9595858491       -0.8018834433       -2.6537779641
 H          2.9853726478       -1.9694519124       -1.7968613423
 H          5.5620805504       -2.3585628424        1.2401968415
 H          5.0520998834       -0.6880073275        1.4843806757
 H          3.2790417548       -2.4356877804        1.8245332761
 H          3.3600885126       -2.8057917421        0.0915792396
 O          2.0009205491       -0.4466912404        1.7795535033
 C          1.1546220183        0.6498248216        1.8041374374
 O          0.8115507994        1.0097472528        2.9502743839
 H         -1.6147304033        0.2827583821        0.5398723109
 C         -2.0199767727        1.0610199560       -0.0908446162
 C         -1.3551021050        2.2774339235       -0.1753019648
 C         -1.8963721296        3.2776359534       -0.9731678869
 C         -3.0681386670        3.0544763813       -1.6748361508
 C         -3.7242570991        1.8408972933       -1.5921822877
 C         -3.1921798532        0.8341521905       -0.7929201020
 N         -3.8132575037       -0.4165160002       -0.7213178501
 S         -3.5118232875       -1.5135042910        0.4876230450
 O         -4.5322422394       -2.5246621078        0.3039889750
 O         -3.4764599774       -0.8944792557        1.7927338998
 C         -1.9319092087       -2.2250282582        0.0828911821
 C         -1.6384322571       -2.4961401190       -1.2383011577
 C         -0.4456386814       -3.1317633801       -1.5413293272
 C          0.4218070086       -3.4945763856       -0.5235060523
 C          0.1174346830       -3.2082273191        0.7976560159
 C         -1.0698605146       -2.5647307753        1.1059452515
 H         -1.3390147552       -2.3129160806        2.1204334247
 H          0.7952837397       -3.4826239601        1.5898990476
 H          1.3390739131       -4.0092924456       -0.7604649877
 H         -0.1986682419       -3.3469301742       -2.5683373092
 H         -2.3388724541       -2.2078138356       -2.0042975848
 H         -4.7251302050       -0.4988904586       -1.1424285959
 H         -4.6362507805        1.6666127334       -2.1419743285
 H         -3.4772721779        3.8382620726       -2.2941175360
 H         -1.4002342350        4.2312685135       -1.0482401811
 C         -0.0973255757        2.4644172548        0.6364534615
 H         -0.3919598450        2.5951057633        1.6890557718
 C          0.7189574767        3.6676895609        0.2050848281
 C          0.4592132221        5.0185201682        0.7989232859
 C          1.6963856455        4.2605553047        1.1733995776
 H          2.6488233563        4.6066423858        0.8006187492
 H          1.7482583760        3.8153786886        2.1568341802
 H         -0.3257825390        5.0988321785        1.5358296782
 H          0.5659309309        5.8891390318        0.1693878836
 H          1.0175004576        3.6130594470       -0.8358456335
 O          0.7980566105        1.1491252344       -1.7642028683
