  62
        -98.94516913
 C         -2.4643486990       -1.2263597910       -0.0903374399
 C         -3.4451180290       -0.6839841714        0.7804666903
 C         -4.2024051193        0.4620331586        0.2687895606
 C         -3.9501102696        0.9281836088       -0.9675880694
 C         -4.6390430299        2.0869774388       -1.6353097291
 C         -4.0494491802        3.4548774888       -1.2645717690
 C         -4.3665676001        3.9374754785        0.1515239411
 H         -4.0836754103        4.9908438986        0.2004322413
 H         -5.4422650301        3.8804070683        0.3208826512
 C         -3.6272258298        3.1770117885        1.2614746309
 H         -2.7815107897        2.6342148588        0.8314014007
 H         -3.2141631699        3.8905815785        1.9780427410
 C         -4.4986879195        2.1980233382        2.0487009309
 H         -5.2682342195        2.7496392880        2.5930707310
 H         -3.8654770493        1.6900991082        2.7803354607
 C         -5.1816941594        1.1266153182        1.1886079808
 H         -5.5868401591        0.3599768780        1.8533882807
 H         -6.0003620095        1.5659372981        0.6194404009
 H         -2.9659206402        3.4173576891       -1.4030798291
 H         -4.4491235704        4.1847795089       -1.9724397888
 H         -4.5210019700        1.9414969390       -2.7112458592
 H         -5.7025998699        2.0701643785       -1.3960380990
 O         -3.0187305996        0.3671657291       -1.7822133496
 C         -2.2344371893       -0.6975433908       -1.3604925299
 O         -1.4037338293       -1.0713585205       -2.2127781300
 H          0.5624762210       -2.0706329602       -1.1865195104
 C          0.7411313011       -1.6999149703       -0.1892381404
 C         -0.2539824088       -1.8035053607        0.7713737697
 C         -0.0135168788       -1.2798092908        2.0382818598
 C          1.1916745211       -0.6694399406        2.3326688997
 C          2.1761947210       -0.5550803203        1.3666038396
 C          1.9391655010       -1.0605009101        0.0958140796
 N          2.9230015908       -0.9129012897       -0.9024345005
 S          3.4347116804        0.6611139204       -1.2081023804
 O          2.4180704403        1.6295224401       -0.8648743801
 O          3.8884439503        0.6587405307       -2.5820445704
 C          4.8469316805        0.8532898105       -0.1388069105
 C          4.8761112704        1.8753723604        0.7895791897
 C          5.9877061205        2.0062363205        1.6077074195
 C          7.0450616607        1.1182501507        1.4825452893
 C          7.0016081708        0.0988597909        0.5428954591
 C          5.8937720007       -0.0370546192       -0.2782591308
 H          5.8208063108       -0.8114131591       -1.0234023609
 H          7.8260302809       -0.5892845689        0.4481624389
 H          7.9080796407        1.2215739308        2.1211259492
 H          6.0228828304        2.7982631804        2.3384310597
 H          4.0276755103        2.5381114002        0.8539331899
 H          2.6630175908       -1.3570954497       -1.7725596806
 H          3.1124761809       -0.0669085101        1.5827800996
 H          1.3646065812       -0.2713338607        3.3209624498
 H         -0.7937721587       -1.3386955311        2.7839603499
 C         -1.6133131987       -2.3695833609        0.4416342098
 H         -2.0931632185       -2.6724402612        1.3817422998
 C         -1.5695071886       -3.5641205008       -0.4869454704
 C         -1.0621726082       -4.8731587107        0.0376762593
 C         -2.5200317583       -4.7001840610       -0.2617478405
 H         -2.9343339383       -5.2016332509       -1.1235528305
 H         -3.2066762982       -4.6205900513        0.5681961796
 H         -0.4728390382       -5.4972454505       -0.6163856308
 H         -0.7582402481       -4.9088387608        1.0728380493
 H         -1.3444503388       -3.3084867506       -1.5145695304
 O         -3.6766237788       -1.1402527616        1.9309531302
