  62
        -98.93764960
 C          1.5000787695        1.1883056526        0.2482213576
 C          2.5751324688        0.6933340916        1.0225024816
 C          3.2217450711       -0.5510474148        0.5661251565
 C          2.7139378940       -1.1837629160       -0.5078584069
 C          3.2223858878       -2.4339702360       -1.1744368556
 C          4.4763663944       -2.1825478033       -2.0293330741
 C          5.5188530298       -1.2664286380       -1.3928336643
 H          6.2878359386       -1.0666677290       -2.1435882301
 H          5.0524032891       -0.3111892394       -1.1447902336
 C          6.2116835199       -1.8292493774       -0.1543077204
 H          6.7262132023       -2.7548333509       -0.4219507321
 H          6.9696273680       -1.1040631827        0.1526145589
 C          5.3082563912       -2.1102030257        1.0476382642
 H          5.9583514187       -2.2917465826        1.9087384682
 H          4.7321692674       -3.0197894688        0.8995137755
 C          4.3852216455       -0.9596819373        1.4379313444
 H          3.9529464561       -1.1803989908        2.4221093302
 H          4.9845413518       -0.0534789547        1.5839028162
 H          4.9307084299       -3.1458429569       -2.2664666684
 H          4.1564336370       -1.7201036146       -2.9661224641
 H          3.4041730595       -3.2025077082       -0.4286559146
 H          2.4196921183       -2.7901740774       -1.8241435008
 O          1.6337721640       -0.7076909612       -1.1854143791
 C          0.9868088856        0.4599527839       -0.8264542717
 O          0.0017913244        0.7321073658       -1.5377998941
 H         -0.4204392634        0.5517073389        2.0244504617
 C         -1.1293655985        1.1708370616        1.4867491844
 C         -0.6646806757        2.2531510488        0.7480393917
 C         -1.5887740199        3.0256814881        0.0575630293
 C         -2.9355588662        2.7051009435        0.0855917001
 C         -3.3845602406        1.5964042839        0.7795121031
 C         -2.4680083673        0.8257077587        1.4817402147
 N         -2.9205718034       -0.3719312312        2.1120837384
 S         -2.6270063084       -1.6977172181        1.1003212150
 O         -3.1493756070       -2.8493942250        1.8071994035
 O         -1.2267043727       -1.7846839377        0.7396303280
 C         -3.6395205311       -1.3281888177       -0.3107681080
 C         -3.1031466550       -0.6223527135       -1.3695829275
 C         -3.9316574821       -0.2927857631       -2.4319797940
 C         -5.2658957938       -0.6688594860       -2.4164635981
 C         -5.7857119742       -1.3799479756       -1.3448299463
 C         -4.9666968396       -1.7113802382       -0.2780921047
 H         -5.3210334465       -2.2627717939        0.5772857791
 H         -6.8234038046       -1.6721628157       -1.3360713021
 H         -5.9038138412       -0.4052179949       -3.2453724652
 H         -3.5235416657        0.2628301302       -3.2609316531
 H         -2.0620141399       -0.3356171913       -1.3537968651
 H         -2.4453088379       -0.5504615344        2.9880690803
 H         -4.4247294532        1.3141753506        0.7797477376
 H         -3.6398540124        3.3118386220       -0.4619863000
 H         -1.2501932649        3.8628398102       -0.5304006122
 C          0.8258554073        2.4708480050        0.7065482200
 H          1.1817026488        2.6098073541        1.7418002150
 C          1.2415899348        3.7122886800       -0.0674237421
 C          2.5727149014        3.7831241733       -0.7525254393
 C          1.3147000075        3.7339634299       -1.5638146087
 H          1.0046025784        4.6313629268       -2.0787440398
 H          1.0738490480        2.8224227537       -2.0875031092
 H          3.1241440124        4.7102688594       -0.7079564639
 H          3.1972912440        2.9017916932       -0.7233555325
 H          0.9050459480        4.6232263566        0.4178629753
 O          2.9899679908        1.2716611349        2.0654451640
