  62
        -98.93655594
 C         -1.8122861548       -1.2097429894       -0.1367700216
 C         -2.4812482192       -0.5696693637        0.9298214097
 C         -3.6644246678        0.2389304657        0.5821708604
 C         -4.0067100509        0.3688156897       -0.7124381065
 C         -5.1616241365        1.1303113558       -1.3126123225
 C         -5.4370161572        2.5313530832       -0.7450103038
 C         -6.7189415432        2.6106466379        0.0860686668
 H         -7.0717020094        3.6444666630        0.0857221435
 H         -7.4861056583        2.0050613000       -0.4009269639
 C         -6.5781677877        2.1718296728        1.5426922762
 H         -6.0106239004        2.9251442098        2.0935666339
 H         -7.5805128617        2.1398234331        1.9761510043
 C         -5.9084454700        0.8127485401        1.7550713843
 H         -6.2559160995        0.0953618801        1.0124927924
 H         -6.2200352321        0.4365059416        2.7317758795
 C         -4.3737446923        0.8757067951        1.7463531786
 H         -4.0428503373        1.9145444023        1.8376252713
 H         -3.9798662336        0.3579537538        2.6265900220
 H         -5.5403121171        3.2167026792       -1.5879485252
 H         -4.5834223802        2.8696235109       -0.1594984236
 H         -6.0609619876        0.5146507124       -1.2313283247
 H         -4.9292552201        1.2011321231       -2.3777179526
 O         -3.3079643013       -0.2389201100       -1.7139713758
 C         -2.2076054264       -1.0412871701       -1.4630898785
 O         -1.6823022031       -1.5283435723       -2.4808852870
 O         -2.1054670533       -0.6661552777        2.1306949148
 C         -0.6038144078       -2.0776376912        0.1636269115
 C          0.6236730597       -1.5018744418       -0.4989322564
 C          1.5090042084       -2.2521118866       -1.2607097922
 C          2.6104736186       -1.6528975237       -1.8486672765
 C          2.8598760539       -0.3038535221       -1.6816896040
 C          1.9925415781        0.4515969670       -0.9014108435
 C          0.8914574524       -0.1504336150       -0.3132065173
 H          0.2145513085        0.4411640694        0.2909254201
 N          2.2463596686        1.8190971763       -0.7064613118
 S          3.8189490487        2.2938776617       -0.3906778740
 O          3.6980863469        3.5130655995        0.3779534990
 O          4.5517711413        2.4024927074       -1.6276038070
 C          4.5155047871        0.9895949579        0.6086178956
 C          3.8950127806        0.6808723316        1.8030390144
 C          4.4059839698       -0.3478042813        2.5773634067
 C          5.5238079605       -1.0463999120        2.1469586174
 C          6.1390861930       -0.7202861423        0.9485835244
 C          5.6306711805        0.3061786829        0.1686652058
 H          6.0747969915        0.5902495275       -0.7714238055
 H          7.0093154292       -1.2635525015        0.6174517140
 H          5.9164975216       -1.8489129868        2.7510992969
 H          3.9278472751       -0.6019517051        3.5098113490
 H          3.0294552232        1.2442727343        2.1135311645
 H          1.5892600893        2.2786428284       -0.0941270170
 H          3.7016585528        0.1794054015       -2.1504101731
 H          3.2823697522       -2.2454127067       -2.4503431937
 H          1.3317037890       -3.3047031869       -1.4056565718
 H         -0.4637485727       -2.0138181729        1.2529793393
 C         -0.8800788337       -3.5187835835       -0.2081962648
 C         -0.1923308420       -4.6318291755        0.5227092375
 C         -1.6513276535       -4.3763491851        0.7484535162
 H         -2.3687362428       -5.0773538964        0.3489030402
 H         -1.9557755144       -3.9271868853        1.6826262746
 H          0.0919089354       -5.5139434284       -0.0307690596
 H          0.4957328864       -4.3627075043        1.3095038219
 H         -1.0823505504       -3.6442908295       -1.2658280837
