  62
        -98.94785167
 C         -0.9840175594       -0.9962353610        0.7123271294
 C         -1.6043477192       -0.8955921202       -0.5559913707
 C         -2.3060440694        0.3669891599       -0.8263855399
 C         -2.2672197996        1.3521924893        0.0882935407
 C         -2.9631864397        2.6755351593       -0.0454904885
 C         -4.3767152698        2.6267828187        0.5516837912
 C         -5.2051137096        1.4312134490        0.0821385904
 H         -4.7495866996        0.5124456188        0.4581462798
 H         -6.1903845097        1.5161660685        0.5453847703
 C         -5.3638520994        1.3288240699       -1.4411389697
 H         -5.1291944394        2.2880171603       -1.9041867791
 H         -6.4074777493        1.1041138400       -1.6710296700
 C         -4.5185633492        0.2334212305       -2.0939013803
 H         -4.6813678891       -0.7139769899       -1.5739984610
 H         -4.8629912590        0.1052970011       -3.1235878005
 C         -3.0084513892        0.4986100107       -2.1475790799
 H         -2.5568777290       -0.2555136289       -2.7993801204
 H         -2.8183450692        1.4803763110       -2.5875119293
 H         -4.8921409499        3.5533695089        0.2925230918
 H         -4.2906933800        2.5773222180        1.6394523512
 H         -2.3792872999        3.4285104890        0.4871720321
 H         -3.0085262696        2.9482877300       -1.0984296784
 O         -1.6158514297        1.2384643286        1.2742411707
 C         -0.9575861197        0.0663939585        1.6137593901
 O         -0.3923697898        0.0973244478        2.7255029502
 H          1.4491059006       -0.3552748804        0.2710780101
 C          1.6814576308       -1.2914220100       -0.2154107605
 C          0.9262129408       -2.4169163503        0.0889623387
 C          1.2464596411       -3.6178077399       -0.5292918620
 C          2.2760204912       -3.6721622392       -1.4537925819
 C          2.9924532211       -2.5380905489       -1.7894746411
 C          2.6882495909       -1.3339286393       -1.1638173003
 N          3.3949978108       -0.1581624690       -1.4568551795
 S          2.6012120806        1.3148375308       -1.4258014886
 O          1.2359905307        1.2103031710       -1.8865222589
 O          3.4601019506        2.1938439015       -2.1938193579
 C          2.6493383103        1.8155649697        0.2809556117
 C          1.5338618402        2.4105596193        0.8346761119
 C          1.5739961199        2.8142328684        2.1591784222
 C          2.7281924999        2.6209169680        2.9014763222
 C          3.8443458800        2.0304306485        2.3283198920
 C          3.8096138902        1.6237559894        1.0043572617
 H          4.6544336104        1.1560303498        0.5269664116
 H          4.7387307599        1.8810508083        2.9115577020
 H          2.7532143497        2.9288004874        3.9348395424
 H          0.7002477298        3.2598548680        2.6068200924
 H          0.6495638702        2.5244274995        0.2260044519
 H          4.0463916609       -0.2252947485       -2.2252493094
 H          3.7758184812       -2.5785963483       -2.5308379710
 H          2.5119286314       -4.6095763688       -1.9343620425
 H          0.6829124811       -4.5071625501       -0.2996497627
 C         -0.2039038893       -2.2477467911        1.0761573087
 H          0.2334100905       -2.0567423117        2.0672809488
 C         -1.1197465892       -3.4494177013        1.1668025277
 C         -0.7788812692       -4.5897401918        2.0773093070
 C         -1.9060835593       -3.6653969922        2.4237205875
 H         -2.9189642893       -4.0302420823        2.3422240071
 H         -1.7606953395       -2.9570092727        3.2264753880
 H         -1.0205524890       -5.5930162317        1.7603035064
 H          0.1311320307       -4.5147217721        2.6529484572
 H         -1.6090260790       -3.6712293807        0.2254519175
 O         -1.5797157390       -1.8143703796       -1.4167699713
