  62
        -98.94964670
 C         -1.6903964811       -1.2137949150        0.3399108219
 C         -1.3276645544       -0.1520185487       -0.5211549732
 C         -1.8774544718        1.1635636697       -0.1822029014
 C         -2.6363043046        1.3052788095        0.9192904099
 C         -3.2399926507        2.5898813442        1.4189139724
 C         -4.5674138163        2.9646056066        0.7449250355
 C         -4.4510286968        3.4540874852       -0.6991665573
 H         -5.4170968245        3.8853711090       -0.9688371507
 H         -3.7111103839        4.2533800587       -0.7505305951
 C         -4.0991538837        2.3570511791       -1.7134176491
 H         -4.7511532260        2.4451105521       -2.5852677063
 H         -4.2876987181        1.3772384345       -1.2687968264
 C         -2.6570951042        2.4009647892       -2.2185161538
 H         -2.5075849420        1.5606508832       -2.9007656162
 H         -2.4925292586        3.3244059557       -2.7778512789
 C         -1.5988519373        2.3060257330       -1.1113913702
 H         -0.6258159899        2.1264986122       -1.5753909044
 H         -1.5463826914        3.2415551754       -0.5543731888
 H         -5.0198551529        3.7607393060        1.3407275378
 H         -5.2341020166        2.1000558622        0.7848454817
 H         -3.4216853306        2.4512409367        2.4871471190
 H         -2.5211545680        3.4008295487        1.2954426538
 O         -2.9356352644        0.2650882365        1.7430990694
 C         -2.4730925058       -1.0131281723        1.4747144920
 O         -2.8205536879       -1.8738332294        2.3112069420
 H          0.5058042424       -1.2016951384        1.6177941359
 C          1.0455064115       -1.7682326064        0.8725128176
 C          0.3499166556       -2.5688582193       -0.0245445194
 C          1.0741540611       -3.2964152112       -0.9609645092
 C          2.4538715827       -3.1960653259       -1.0135375313
 C          3.1366479011       -2.3554832505       -0.1533981479
 C          2.4215188108       -1.6333026371        0.7947893825
 N          3.0631551406       -0.7471757285        1.6860723416
 S          2.6651847603        0.8778008623        1.5682191012
 O          3.5052080352        1.5381217796        2.5451848645
 O          1.2445016400        1.0542692492        1.7245673753
 C          3.1945732845        1.3454988843       -0.0706678555
 C          2.4206017820        0.9970735272       -1.1593642025
 C          2.8821977102        1.3086403246       -2.4296577999
 C          4.0982466893        1.9541998100       -2.5899763138
 C          4.8635204201        2.2958826862       -1.4848887225
 C          4.4117710631        1.9847308080       -0.2129394611
 H          4.9696621271        2.2322274679        0.6758122438
 H          5.8084113240        2.7996774382       -1.6101244628
 H          4.4497302572        2.1925493212       -3.5814718267
 H          2.2805212968        1.0383837674       -3.2827380161
 H          1.4740931714        0.4983666788       -1.0161531533
 H          4.0705605227       -0.8364903446        1.6907598905
 H          4.2100213145       -2.2555586028       -0.2125190993
 H          3.0027400718       -3.7656722720       -1.7477322024
 H          0.5564997207       -3.9376516775       -1.6555853707
 C         -1.1561568634       -2.6094112385        0.0744422807
 H         -1.4302492962       -3.2150567864        0.9511158934
 C         -1.8213072273       -3.1965642108       -1.1543740121
 C         -2.0641730934       -4.6717816245       -1.2555416738
 C         -3.2132010176       -3.7367632559       -1.0305082621
 H         -3.9080383315       -3.5649247848       -1.8388355173
 H         -3.6681044832       -3.7064174420       -0.0507261378
 H         -1.9745259782       -5.1448058047       -2.2218429802
 H         -1.7470869571       -5.2892623014       -0.4287383387
 H         -1.5745284237       -2.6524310162       -2.0589216870
 O         -0.5764159939       -0.2965288067       -1.5217255362
