  62
        -98.94096257
 C          2.3121190943        0.8396909462       -0.1576246927
 C          3.6008738277        1.2053348188        0.2999624530
 C          4.7202958141        0.4509786754       -0.2738786792
 C          4.4802995010       -0.5033454308       -1.1916640849
 C          5.5182504585       -1.3433626276       -1.8856601277
 C          5.9644004323       -2.5733745103       -1.0830299117
 C          6.8520770892       -2.2746061564        0.1258366733
 H          7.6886160801       -1.6483867035       -0.1855113771
 H          7.2654242086       -3.2273708004        0.4625335096
 C          6.1196233066       -1.6118530376        1.3008746196
 H          6.3994277289       -2.1096488924        2.2320642264
 H          5.0419321786       -1.7442099581        1.1788453949
 C          6.4190183607       -0.1229061583        1.4753202173
 H          7.4729389788        0.0119024418        1.7280758775
 H          5.8217576350        0.2515724147        2.3105783007
 C          6.0987798892        0.7335987352        0.2431811562
 H          6.8403159225        0.5634879686       -0.5368470049
 H          6.1334729607        1.7852114441        0.5377631858
 H          6.5204881692       -3.2219364889       -1.7639118026
 H          5.0751600677       -3.1182179679       -0.7574250266
 H          6.3864868747       -0.7290390440       -2.1255417864
 H          5.0657730090       -1.6865637106       -2.8184776016
 O          3.2263849404       -0.8109187451       -1.6207920441
 C          2.1121158562       -0.1659936880       -1.1026043458
 O          1.0262302352       -0.5708663306       -1.5620546393
 O          3.8040258649        2.1147480508        1.1481519754
 C          1.1020326474        1.5651135897        0.4012470702
 C          0.1551509895        0.5790756791        1.0389625128
 C          0.6565113842       -0.3187984882        1.9786721885
 C         -0.1696417309       -1.2491516637        2.5769680452
 C         -1.5130208958       -1.3055718250        2.2491115255
 C         -2.0280054724       -0.4042717047        1.3255983202
 C         -1.1960415952        0.5375292240        0.7344879435
 H         -1.6174508115        1.2198321394        0.0168836114
 N         -3.4037291088       -0.4119683773        1.0247280105
 S         -3.9365283111       -0.2104265268       -0.5648678413
 O         -3.4264526662       -1.2694355977       -1.4081476161
 O         -3.6716891701        1.1396017337       -0.9904309703
 C         -5.6897959002       -0.4217697813       -0.3106231882
 C         -6.2957159620       -1.6140181492       -0.6574999090
 C         -7.6542290559       -1.7677805995       -0.4279946355
 C         -8.3787316175       -0.7334794612        0.1445877690
 C         -7.7566147032        0.4581710958        0.4869288903
 C         -6.3994046676        0.6187166681        0.2586591166
 H         -5.8752252204        1.5285047624        0.5000463299
 H         -8.3238140377        1.2609694474        0.9296535765
 H         -9.4354256823       -0.8558147925        0.3227054887
 H         -8.1408361325       -2.6917855923       -0.6959892678
 H         -5.6933459424       -2.3874245793       -1.1066277693
 H         -3.8686266169       -1.2161084037        1.4269711480
 H         -2.1575100223       -2.0406352065        2.7075002259
 H          0.2351169166       -1.9432361487        3.2983877604
 H          1.7090720185       -0.2808364763        2.2258466107
 H          1.4951811937        2.2249656550        1.1895720706
 C          0.4577867025        2.4199928886       -0.6690783591
 C         -0.3009980549        3.6558620352       -0.2916403578
 C          1.0315932795        3.7715237506       -0.9669251318
 H          1.0652193627        4.1017949200       -1.9943243729
 H          1.8787658013        4.0894398195       -0.3768225227
 H         -1.1896455455        3.9017974797       -0.8534626855
 H         -0.3601165162        3.9026974581        0.7576262706
 H          0.0937293024        1.8351592324       -1.5078472121
