  62
        -98.93242057
 C          2.7644663674        0.2453309599        0.2164758077
 C          2.4359459281        1.0698357405       -0.8897578003
 C          1.8263458854        2.3762478706       -0.5999346129
 C          1.6191933077        2.7301289721        0.6797745047
 C          1.0626760468        4.0191401355        1.2329980403
 C         -0.1134893490        4.6682206621        0.4962139147
 C         -1.1403925913        3.6825060563       -0.0804824294
 H         -0.9651803765        2.6759780432        0.3059432442
 H         -2.1398412632        3.9814149560        0.2429980806
 C         -1.1376122470        3.6428756559       -1.6100628942
 H         -2.0826238708        3.2104403000       -1.9482608194
 H         -1.0830510189        4.6658632293       -1.9911435588
 C         -0.0208653333        2.8108714699       -2.2377911377
 H         -0.0904568287        2.9187498695       -3.3234721101
 H         -0.1887625066        1.7530333491       -2.0113481480
 C          1.4066268570        3.1783730586       -1.7973932758
 H          2.0910515077        2.8944693708       -2.6017152609
 H          1.5016692093        4.2476324536       -1.6224156853
 H          0.2616979867        5.3020813390       -0.3060559245
 H         -0.6054234828        5.3268160241        1.2145068158
 H          1.8842608518        4.7395268613        1.2986031166
 H          0.7620407669        3.7792392526        2.2560445372
 O          1.9651511437        1.9164768645        1.7153170566
 C          2.4831064878        0.6421656196        1.5223481842
 O          2.6511321051        0.0105439723        2.5832616289
 O          2.6608998956        0.7228776662       -2.0809094076
 C          3.2627314289       -1.1490332750       -0.1302591970
 C          2.0665819384       -1.9548727010       -0.5745993183
 C          2.0744533652       -2.7243013747       -1.7308647418
 C          0.9203273076       -3.3509232741       -2.1704212425
 C         -0.2700776871       -3.2020050031       -1.4796911209
 C         -0.2792213757       -2.4533111989       -0.3134624059
 C          0.8830424502       -1.8576228285        0.1433033108
 H          0.8511230456       -1.2578373614        1.0439862136
 N         -1.5202403530       -2.1931285528        0.3505298668
 S         -1.9749269434       -0.5854725577        0.0409864109
 O         -1.7152142845       -0.3138424236       -1.3496921821
 O         -1.3682262715        0.3054596382        1.0083507662
 C         -3.7333773737       -0.6739303741        0.3194934079
 C         -4.4953528787       -1.3771400485       -0.5936027462
 C         -5.8585441775       -1.4961764362       -0.3780556116
 C         -6.4337716223       -0.9141318892        0.7422272890
 C         -5.6560184364       -0.2108913978        1.6490330697
 C         -4.2906805574       -0.0898577017        1.4394631323
 H         -3.6466024544        0.4490868803        2.1159204479
 H         -6.1051680119        0.2420352168        2.5182794300
 H         -7.4951772737       -1.0084875085        0.9090164397
 H         -6.4669455948       -2.0416290122       -1.0812369403
 H         -4.0030348973       -1.8053136198       -1.4508492901
 H         -1.4259791170       -2.2809636631        1.3550151813
 H         -1.1870499447       -3.6395363862       -1.8384966142
 H          0.9415307293       -3.9339083560       -3.0784595831
 H          2.9840909360       -2.7977806670       -2.3088369106
 H          3.9152537576       -1.0201890881       -1.0090842036
 C          4.0788049878       -1.8280896172        0.9556429143
 C          3.5424615981       -2.9433089754        1.7973756577
 C          4.5742607653       -3.2292303887        0.7503462532
 H          5.5774971966       -3.4719941149        1.0651588643
 H          4.2495641860       -3.7468256264       -0.1394846674
 H          3.8284810836       -2.9656911321        2.8375361191
 H          2.5300944310       -3.2722002838        1.6193542706
 H          4.7532374602       -1.1373616924        1.4492272642
