  62
        -98.94382759
 C         -1.3254874002       -1.4203824592        0.3211437402
 C         -1.8137339701       -0.4817791995        1.2654780506
 C         -3.0443845000        0.2263320408        0.9002315309
 C         -3.6146813599       -0.0046704785       -0.2959008493
 C         -4.8943693297        0.6046245020       -0.8010975791
 C         -4.7201128494        1.9896930823       -1.4380685184
 C         -4.4349056393        3.1252286318       -0.4546256778
 H         -4.5562725591        4.0619118921       -1.0023099174
 H         -5.1814558794        3.1132757815        0.3403532621
 C         -3.0277798194        3.0939467612        0.1583074323
 H         -2.3742979094        2.4548987214       -0.4414800380
 H         -2.5913630592        4.0952309212        0.1258131328
 C         -2.9765771396        2.6278808205        1.6134284121
 H         -3.4922295595        3.3521827303        2.2484454124
 H         -1.9270676096        2.5987836601        1.9183452422
 C         -3.5861748399        1.2416892105        1.8603819413
 H         -3.3151148500        0.9244048399        2.8704813512
 H         -4.6726135299        1.2921218907        1.7883291112
 H         -3.9146975894        1.9376950125       -2.1747081584
 H         -5.6449506093        2.2223883627       -1.9712112084
 H         -5.2831469898       -0.0766296575       -1.5611890695
 H         -5.6166014498        0.6659671717        0.0136999308
 O         -3.0814701099       -0.8640489281       -1.2027620397
 C         -1.9085889601       -1.5625361184       -0.9388019599
 O         -1.5144940401       -2.2578349080       -1.8933238602
 H          0.6316632602        0.1672276008       -0.3700016188
 C          1.2248588501       -0.6262764391       -0.7984881291
 C          0.9843755598       -1.9392526392       -0.4155847998
 C          1.7229787197       -2.9490657890       -1.0171259902
 C          2.6731250798       -2.6401257387       -1.9760165500
 C          2.9290363201       -1.3285082886       -2.3321235493
 C          2.1917342902       -0.3108463288       -1.7370584389
 N          2.4164063205        1.0388632014       -2.0494381982
 S          2.2709573206        2.1759058908       -0.8305883276
 O          0.8825760606        2.4689129309       -0.5783928676
 O          3.0751393208        3.2915090309       -1.2838564070
 C          3.0361840903        1.4178387699        0.5930727221
 C          2.2865331101        1.0605163595        1.6947425518
 C          2.9146172699        0.4238143589        2.7540355816
 C          4.2733266499        0.1576029487        2.6951891816
 C          5.0158596000        0.5328027091        1.5855935518
 C          4.3932296402        1.1665798797        0.5234630821
 H          4.9387454704        1.4810558601       -0.3513689477
 H          6.0736600400        0.3292761489        1.5442251318
 H          4.7549429197       -0.3433099018        3.5200156414
 H          2.3300611598        0.1336464886        3.6127531514
 H          1.2280373201        1.2701853997        1.7142028218
 H          3.2117730006        1.2151441415       -2.6449833980
 H          3.6790564302       -1.0917974984       -3.0710077491
 H          3.2319172697       -3.4347097986       -2.4465789103
 H          1.5418304295       -3.9778592391       -0.7533027508
 C         -0.0447977104       -2.1584451796        0.6646778000
 H          0.3229038897       -1.6393086001        1.5672228303
 C         -0.2250014206       -3.6163297297        1.0581866092
 C         -1.5437436408       -4.1294420297        1.5524565489
 C         -1.0085713007       -4.5892959692        0.2310539487
 H         -0.6438444809       -5.6033022792        0.1537574182
 H         -1.4708963006       -4.2195769686       -0.6699832212
 H         -1.5479401110       -4.8237888201        2.3793595585
 H         -2.3790991207       -3.4437453596        1.5523222291
 H          0.6548164392       -4.0083947801        1.5592156391
 O         -1.2455923702       -0.2497655502        2.3664200308
