  62
        -98.94564696
 C         -1.0887440890       -1.4581438596        0.7459330995
 C         -1.9841098652       -1.4533570317       -0.3503452933
 C         -2.9985273987       -0.3894521986       -0.3417189456
 C         -3.0002389839        0.5145413354        0.6547785478
 C         -3.9529190222        1.6697274575        0.7584464578
 C         -3.3972384187        2.9256884747        0.0734435396
 C         -2.8523333220        2.6787235776       -1.3327120203
 H         -2.5120187759        3.6402305041       -1.7222309732
 H         -1.9762977173        2.0290003121       -1.2671716789
 C         -3.8671969349        2.0688853024       -2.3095477803
 H         -3.7980608971        2.5976592749       -3.2625323823
 H         -4.8798088346        2.2147436110       -1.9313168152
 C         -3.6489904738        0.5848216483       -2.6081298588
 H         -2.6082317832        0.4160203366       -2.8964460223
 H         -4.2732604235        0.3144951028       -3.4641194815
 C         -3.9941583368       -0.3803354818       -1.4673540016
 H         -4.9976779691       -0.1656808941       -1.0941594546
 H         -3.9895915611       -1.3941960763       -1.8782328242
 H         -2.5848520611        3.3185226995        0.6860561779
 H         -4.1907455583        3.6739943544        0.0319528917
 H         -4.1151000217        1.8854854093        1.8157803827
 H         -4.9023930356        1.3867842454        0.3075258224
 O         -2.1023777057        0.4962620767        1.6736705279
 C         -1.1282710276       -0.4858446137        1.7454833673
 O         -0.3696495667       -0.3881494009        2.7310237167
 O         -1.9488340894       -2.2948574873       -1.2855927491
 C          0.0095927024       -2.5047646313        0.8263198233
 C          0.9539757753       -2.2985499746       -0.3335175214
 C          1.2560434390       -3.2725502273       -1.2748759498
 C          2.1106737838       -2.9844307061       -2.3254796111
 C          2.6943740607       -1.7369038839       -2.4453044443
 C          2.4071859503       -0.7577958282       -1.5002055550
 C          1.5364958775       -1.0431282390       -0.4625239706
 H          1.3087626271       -0.2797158176        0.2681397113
 N          2.9722977388        0.5246568112       -1.5833947468
 S          3.5218461199        1.2570910158       -0.1798415328
 O          4.4955502267        2.2255932437       -0.6403169692
 O          4.0037834370        0.2802751142        0.7686501348
 C          2.1232471406        2.1390230581        0.4768184622
 C          1.7842455956        1.9833887837        1.8055155341
 C          0.7398216039        2.7315074065        2.3242884687
 C          0.0610809070        3.6223611607        1.5088211874
 C          0.4074041653        3.7615857771        0.1727410179
 C          1.4496011892        3.0151625074       -0.3515793082
 H          1.7531961045        3.1011974989       -1.3817007328
 H         -0.1299307316        4.4510817164       -0.4585221641
 H         -0.7404524754        4.2145813677        1.9227148066
 H          0.4577072896        2.6035595735        3.3568115264
 H          2.3289553747        1.2732895100        2.4075178552
 H          3.6214028773        0.6530720696       -2.3464479005
 H          3.3654586511       -1.5174946351       -3.2619775182
 H          2.3308945897       -3.7462159066       -3.0580258657
 H          0.8155948913       -4.2524164633       -1.1940973667
 H          0.5663212614       -2.2925161029        1.7509756100
 C         -0.5683724708       -3.9003500732        0.9137737627
 C          0.2395549027       -5.0050432192        1.5235269900
 C         -0.9420140677       -4.4472743611        2.2572871616
 H         -1.8326126086       -5.0521945212        2.3382462059
 H         -0.7614718606       -3.8192982292        3.1178672482
 H          0.1598590274       -5.9963914523        1.1038154638
 H          1.2255550108       -4.7591064150        1.8887146822
 H         -1.2173729182       -4.1394198635        0.0799043638
