  62
        -98.93755447
 C          1.8600822144        0.5372026724       -0.8644005594
 C          2.2422335646        0.0309248079        0.3991159564
 C          3.6868110675        0.0366581011        0.6982843612
 C          4.5518837561        0.5046522100       -0.2209315599
 C          6.0567576289        0.6740521582       -0.1816819688
 C          6.8906119818        0.0110791190        0.9113578866
 C          6.9435490514       -1.5145498291        0.8365332802
 H          7.5270318605       -1.7983028755       -0.0430168150
 H          7.4724040507       -1.8820914927        1.7186247769
 C          5.5916551254       -2.2167816860        0.7379987061
 H          5.0935706047       -1.9252420985       -0.1888726417
 H          5.7779170253       -3.2925624485        0.6784963798
 C          4.6419250329       -1.9739896777        1.9091799724
 H          5.1410387159       -2.2292837426        2.8460008750
 H          3.7910136523       -2.6495278416        1.7882273031
 C          4.0841832143       -0.5449528873        2.0245719656
 H          4.7820355042        0.1114988619        2.5388949986
 H          3.1701192200       -0.5861965856        2.6242307954
 H          6.5521408638        0.3343881960        1.8912970001
 H          7.9120206122        0.3825914941        0.7913852328
 H          6.4192198727        0.3412330339       -1.1595749373
 H          6.2311682474        1.7551031324       -0.1420914442
 O          4.1305985883        0.9864534914       -1.4284852840
 C          2.7935542211        1.0147570740       -1.7808458429
 O          2.5685352867        1.4844771009       -2.9152682184
 O          1.4183895155       -0.3986954407        1.2474373662
 C          0.3952373516        0.5708224256       -1.2558361742
 C         -0.4086960382        1.3791049874       -0.2657368754
 C          0.1228864684        2.5603642380        0.2451416184
 C         -0.5905166326        3.3258342451        1.1462857122
 C         -1.8609544865        2.9437653527        1.5396620091
 C         -2.4098491216        1.7780279804        1.0218169949
 C         -1.6824556425        1.0006661434        0.1302706327
 H         -2.1271569408        0.0996478576       -0.2582191936
 N         -3.6934408935        1.3598757764        1.4023372980
 S         -4.7363173271        0.7247986940        0.2590362603
 O         -4.5222195532        1.3110127551       -1.0433665483
 O         -6.0555704378        0.9085517934        0.8270062921
 C         -4.3745017854       -1.0177687922        0.2184440124
 C         -4.4837163419       -1.6916582287       -0.9817621677
 C         -4.2560186510       -3.0589593847       -1.0075763039
 C         -3.9240834768       -3.7249037726        0.1619942401
 C         -3.8197279787       -3.0333702665        1.3594481547
 C         -4.0511496771       -1.6675202625        1.3930946615
 H         -3.9753666338       -1.1005575461        2.3057671174
 H         -3.5580493632       -3.5540369397        2.2665555898
 H         -3.7444212554       -4.7882564203        0.1396778471
 H         -4.3368471458       -3.5975445630       -1.9385921672
 H         -4.7318141352       -1.1325840373       -1.8699454691
 H         -4.1715556845        1.9797239795        2.0399201019
 H         -2.4219882073        3.5427840894        2.2409499935
 H         -0.1579902320        4.2331931896        1.5406578335
 H          1.1110993791        2.8680826397       -0.0694639341
 H          0.3506488243        1.0890290140       -2.2259412765
 C         -0.1213835277       -0.8425432849       -1.4353942876
 C         -1.1964393612       -1.1400559570       -2.4355698090
 C          0.2127326883       -1.5766443060       -2.6979830115
 H          0.4470214540       -2.6286531751       -2.6373712327
 H          0.7862737123       -1.0432135163       -3.4424611138
 H         -1.9282642800       -1.8954243095       -2.1917456869
 H         -1.5907607550       -0.3138992639       -3.0085707012
 H         -0.1133226880       -1.4063187059       -0.5094746654
