  62
        -98.94009456
 C          2.0100435862       -1.3997413939        0.2711316035
 C          1.7460710130       -0.0170440263        0.4292107066
 C          2.9285529599        0.8503110939        0.5555588778
 C          4.1584706960        0.3090238281        0.5062076312
 C          5.4417524333        1.0843786258        0.5677120491
 C          5.9235589177        1.4720291801       -0.8373589368
 C          4.8415694062        2.1117069415       -1.7077282496
 H          5.3037408612        2.3707434364       -2.6628683044
 H          4.0669797628        1.3703405441       -1.9178090112
 C          4.1922482240        3.3621314017       -1.0982949463
 H          4.8273210100        3.7602874520       -0.3059824772
 H          4.1189261392        4.1301666579       -1.8712032411
 C          2.7796714844        3.1424513564       -0.5535725861
 H          2.1635553628        2.6577268281       -1.3156397317
 H          2.3375827410        4.1219342437       -0.3520827979
 C          2.6838685297        2.3217851912        0.7386061577
 H          3.3603377422        2.7359616005        1.4889743401
 H          1.6591733655        2.4129883952        1.1100000476
 H          6.7652435129        2.1596423492       -0.7363741605
 H          6.2801267662        0.5711038776       -1.3422281195
 H          5.2927756234        1.9776393290        1.1711871314
 H          6.1999301321        0.4586622232        1.0417680345
 O          4.3734189043       -1.0210584111        0.3389932301
 C          3.3122265434       -1.9009764477        0.1977703752
 O          3.6515260768       -3.0862354175        0.0100092367
 H         -1.8423560856       -2.0499015223        0.4473649475
 C         -1.4922304898       -1.7560084325       -0.5299207207
 C         -0.1491740218       -1.8716105587       -0.8514896177
 C          0.2657911787       -1.4659691259       -2.1179089776
 C         -0.6313417265       -0.9362877885       -3.0243741253
 C         -1.9709492732       -0.8153019286       -2.6968323617
 C         -2.3978611989       -1.2275405199       -1.4430393802
 N         -3.7666581284       -1.1203610625       -1.1172808126
 S         -4.4481794903        0.4022102591       -0.9679922681
 O         -5.8758393909        0.1866437168       -0.8905261877
 O         -3.9850740088        1.2317182692       -2.0502208420
 C         -3.8700592114        1.0303922490        0.6000836827
 C         -4.7745340472        1.1868933998        1.6329432779
 C         -4.3204744231        1.6385579125        2.8612855134
 C         -2.9727667165        1.9137430469        3.0397766092
 C         -2.0786934301        1.7458875662        1.9943076810
 C         -2.5264052669        1.3034260248        0.7597224428
 H         -1.8337618420        1.1592550316       -0.0536034400
 H         -1.0252891337        1.9374987565        2.1214313009
 H         -2.6163922177        2.2584028911        3.9979174139
 H         -5.0153401909        1.7696858087        3.6753001385
 H         -5.8112313531        0.9541970728        1.4501243722
 H         -4.0337381342       -1.6777402646       -0.3174817559
 H         -2.6823564338       -0.3896648956       -3.3851072556
 H         -0.2879972498       -0.6167418976       -3.9971617886
 H          1.3127007168       -1.5580893477       -2.3766103094
 C          0.8867107995       -2.4096686092        0.1058535396
 H          1.3598701545       -3.2842376890       -0.3707905425
 C          0.2959169395       -2.8991077572        1.4206377439
 C          1.0838187391       -2.8456647136        2.6945682202
 C         -0.1053498075       -1.9535223674        2.5121161506
 H         -0.9990644996       -2.1709109868        3.0791811719
 H          0.0594156376       -0.9017325104        2.3420292257
 H          1.0061094231       -3.6782084238        3.3777448312
 H          2.0690396512       -2.4039031541        2.6579573196
 H         -0.3257071835       -3.7787543191        1.2823373836
 O          0.5930429332        0.4810616055        0.4660289966
