  62
        -98.93038291
 C         -2.3517165614       -0.2160809794       -0.5352354045
 C         -3.6227701747       -0.7492460226       -0.8606826103
 C         -4.7428895837       -0.4380929269        0.0482722843
 C         -4.4925549504        0.2873671100        1.1536743819
 C         -5.4640057932        0.7569860961        2.2039682569
 C         -6.3250413402        1.9389437732        1.7309356975
 C         -6.8917145241        1.7971972903        0.3208046597
 H         -7.3924239473        2.7356639387        0.0684954239
 H         -6.0689001803        1.6697743097       -0.3849406936
 C         -7.8996636986        0.6654467505        0.1352570913
 H         -8.2927321966        0.7451127838       -0.8815596478
 H         -8.7335918886        0.8114919682        0.8253430381
 C         -7.3554508569       -0.7526613752        0.3222888409
 H         -8.0996898335       -1.4431473535       -0.0852602723
 H         -7.2512584708       -0.9990712163        1.3756058812
 C         -6.0501019983       -1.0353273072       -0.4145028577
 H         -5.8863357250       -2.1197226216       -0.4313025082
 H         -6.1614479375       -0.7470699911       -1.4661907098
 H         -5.7047074028        2.8383381213        1.7517965681
 H         -7.1415890181        2.0761756953        2.4418390279
 H         -4.8663147934        1.0818265068        3.0586412196
 H         -6.0877726406       -0.0692779791        2.5320689408
 O         -3.2432640504        0.7420885270        1.4524115823
 C         -2.1462689687        0.5100418428        0.6384589498
 O         -1.0865880211        0.9967975107        1.0730760157
 O         -3.8247960340       -1.4629132250       -1.8804634537
 C         -1.1971577650       -0.5384890721       -1.4673753072
 C         -0.0345961070       -1.0803683549       -0.6755302829
 C         -0.1489267439       -2.3431138706       -0.1007844516
 C          0.8825978974       -2.8748317568        0.6488312079
 C          2.0494935709       -2.1576383577        0.8451302819
 C          2.1729424819       -0.8963820106        0.2789840945
 C          1.1394867979       -0.3698143800       -0.4866557770
 H          1.2388416908        0.6195154921       -0.9057935899
 N          3.3445176727       -0.1487915374        0.4980790963
 S          4.8201608615       -0.9505986667        0.3313659579
 O          4.8310288912       -1.7210673252       -0.8930405265
 O          5.0821275429       -1.6916783579        1.5398213032
 C          5.9459819725        0.4253599034        0.2124804582
 C          6.3690115053        0.8512683512       -1.0322633873
 C          7.2262683213        1.9374649229       -1.1131221925
 C          7.6408977473        2.5771453773        0.0453148531
 C          7.2072314453        2.1380169034        1.2875446085
 C          6.3510537242        1.0520189937        1.3757241793
 H          5.9957496783        0.6703804702        2.3185943967
 H          7.5337122314        2.6367558974        2.1858380861
 H          8.3084548782        3.4217874456       -0.0201225683
 H          7.5674167698        2.2795673957       -2.0769673420
 H          6.0285215045        0.3179604875       -1.9053722595
 H          3.3403106834        0.7218834880       -0.0154172879
 H          2.8633045841       -2.5590205093        1.4273392912
 H          0.7793012760       -3.8561846340        1.0877564965
 H         -1.0639204121       -2.9018641778       -0.2457031245
 H         -1.5825949006       -1.3554714392       -2.0998194351
 C         -0.8116403188        0.5887795706       -2.4129065929
 C         -1.8528522592        1.5241867958       -2.9488960840
 C         -0.8046763213        2.0309501818       -2.0065641399
 H         -0.0282137981        2.6685322171       -2.4042612887
 H         -1.0899443267        2.2706321178       -0.9945350857
 H         -1.7995991467        1.8149952438       -3.9872052837
 H         -2.8608809887        1.4098082095       -2.5777039093
 H         -0.0394426403        0.2773021605       -3.1105348259
