  62
        -98.94438082
 C         -2.3565684501       -1.1453980491        0.2482717295
 C         -2.3558509296        0.1258844608       -0.3757163206
 C         -3.3335879095        1.0912450911        0.1442657490
 C         -4.1352208600        0.7521387014        1.1696805787
 C         -5.1627495500        1.6356133418        1.8236764782
 C         -6.5130001797        1.6720308520        1.0946406177
 C         -6.5215971190        2.4484371819       -0.2227693323
 H         -7.5666130789        2.5795154122       -0.5103853427
 H         -6.1016362388        3.4416597618       -0.0608139023
 C         -5.7774477688        1.7539937016       -1.3718048320
 H         -5.6321674591        0.6993847816       -1.1269971619
 H         -6.3878787184        1.7917046417       -2.2768114222
 C         -4.4218978585        2.3723787812       -1.7143182016
 H         -4.5654362381        3.3881082812       -2.0896536717
 H         -3.9657455783        1.7804647610       -2.5119764513
 C         -3.4366336389        2.4214486711       -0.5392092012
 H         -3.7358842190        3.1921512012        0.1709738286
 H         -2.4463928087        2.6724366508       -0.9285577209
 H         -7.2341605298        2.1376756423        1.7701941774
 H         -6.8404668999        0.6455819221        0.9147626977
 H         -5.3239048605        1.2335053219        2.8261903882
 H         -4.7691333898        2.6484442017        1.9151977083
 O         -4.0841699705       -0.4704473685        1.7618445188
 C         -3.2062056806       -1.4434617388        1.3167928392
 O         -3.2744158711       -2.5190518787        1.9443599293
 O         -1.5899550491        0.4510448105       -1.3213378203
 C         -1.3911510303       -2.2398852194       -0.1811661100
 C          0.0010980997       -1.8075701197        0.2094978905
 C          0.4237312192       -1.9885111197        1.5237188306
 C          1.6644527091       -1.5384998400        1.9334481211
 C          2.5057764696       -0.8891249603        1.0458711313
 C          2.0859695502       -0.6892045903       -0.2615524689
 C          0.8484641902       -1.1636984101       -0.6776276793
 H          0.5306486406       -0.9894884701       -1.6931182894
 N          2.9255885107       -0.0210495206       -1.1693308686
 S          3.6552178309        1.4068568692       -0.6738188385
 O          2.8704003707        2.0994437895        0.3221266011
 O          3.9324344815        2.1325777990       -1.8946574285
 C          5.1987852705        0.8646293289        0.0321157321
 C          5.9966868005        0.0191171386       -0.7138417775
 C          7.2066140702       -0.3996934117       -0.1840387570
 C          7.5986858499        0.0346418183        1.0735140731
 C          6.7885305398        0.8866122386        1.8082083427
 C          5.5759521901        1.3079054889        1.2845459922
 H          4.9100877601        1.9642128391        1.8223474819
 H          7.0945695096        1.2238487886        2.7855378128
 H          8.5410643196       -0.2925863619        1.4835784035
 H          7.8389673203       -1.0628623719       -0.7520826767
 H          5.6570432308       -0.2934686714       -1.6869934576
 H          2.5110455411        0.0943874794       -2.0834259188
 H          3.4687061396       -0.5228747505        1.3625461416
 H          1.9800245087       -1.6895179300        2.9546724112
 H         -0.2434264212       -2.4739570295        2.2227954304
 H         -1.6533891707       -3.1231115593        0.4160236100
 C         -1.5397887798       -2.5826501895       -1.6486776900
 C         -0.9273393199       -3.8467744597       -2.1702171397
 C         -2.4161986500       -3.7301576393       -2.0470229202
 H         -3.0037728596       -3.6393945593       -2.9484201205
 H         -2.9097917004       -4.2794154291       -1.2585774104
 H         -0.4910798296       -3.8407451899       -3.1573591095
 H         -0.4082792004       -4.4753570498       -1.4626408694
 H         -1.5425309293       -1.7145147296       -2.2958536901
