  62
        -98.94034791
 C         -1.8195270289       -0.8302585168       -0.8289661432
 C         -2.0631003255       -0.3346470275        0.4759966709
 C         -3.4787955673       -0.2153739862        0.8554470277
 C         -4.4413214337       -0.6158716339        0.0063738133
 C         -5.9236483509       -0.5779172411        0.2617069634
 C         -6.5728930575        0.7818879584       -0.0301435616
 C         -6.2566866880        1.8842941170        0.9814490203
 H         -6.9431187728        2.7092404894        0.7804611446
 H         -6.4685599430        1.5230011489        1.9882880713
 C         -4.8169404620        2.4125480872        0.9137969677
 H         -4.3664512506        2.1209655677       -0.0377480431
 H         -4.8284098610        3.5044378254        0.9402595100
 C         -3.9143637403        1.9410709982        2.0540290962
 H         -2.9125655740        2.3449469168        1.8876047356
 H         -4.2840870049        2.3384820019        3.0018140136
 C         -3.7963939532        0.4162195510        2.1772098676
 H         -4.7161660102       -0.0004356787        2.5871875629
 H         -2.9732483946        0.1885605066        2.8589501379
 H         -6.2713645052        1.1058800256       -1.0290193377
 H         -7.6546302270        0.6296995471       -0.0435102897
 H         -6.3716844688       -1.3225353974       -0.3999521634
 H         -6.1253608591       -0.8648834507        1.2941740260
 O         -4.1629967160       -1.1425948772       -1.2164585591
 C         -2.8566436156       -1.2524813177       -1.6645686253
 O         -2.7485419337       -1.7483312210       -2.8043248884
 O         -1.1620259837       -0.0087415502        1.2897619605
 C         -0.4087305618       -0.9972778754       -1.3655270654
 C          0.4726481492       -1.6420109722       -0.3238515667
 C          0.0733540981       -2.8566420291        0.2297731824
 C          0.8444372173       -3.4855612878        1.1863577917
 C          2.0476521269       -2.9331200369        1.5912308909
 C          2.4614613998       -1.7300261650        1.0365109338
 C          1.6717072237       -1.0879471728        0.0925271457
 H          2.0018368669       -0.1420957759       -0.3015368900
 N          3.6743632592       -1.1352883042        1.4185490619
 S          4.6681035286       -0.4978251513        0.2322941711
 O          4.5462978468       -1.2263145522       -1.0095078023
 O          5.9869998308       -0.4786873975        0.8294285261
 C          4.1156310886        1.1802736299        0.0154230741
 C          3.9809573882        1.6859307499       -1.2623878283
 C          3.5919394459        3.0064713855       -1.4240565983
 C          3.3468010089        3.7943540670       -0.3096580603
 C          3.4870548514        3.2709760333        0.9668292668
 C          3.8785720255        1.9525485008        1.1350754160
 H          3.9975492872        1.5128643665        2.1110964806
 H          3.2915152453        3.8861698707        1.8302748623
 H          3.0413471793        4.8209460884       -0.4377223304
 H          3.4799834699        3.4138066757       -2.4164707216
 H          4.1726212367        1.0348334593       -2.1006314144
 H          4.2019728503       -1.6525087985        2.1066954055
 H          2.6566816808       -3.4271886340        2.3332944163
 H          0.5135224648       -4.4199563512        1.6147967500
 H         -0.8618835583       -3.2945914524       -0.0937095700
 H         -0.5052379496       -1.7103699637       -2.2018931084
 C          0.1872201532        0.2762163371       -1.9481722669
 C         -0.6889402435        1.3569169897       -2.5058559435
 C          0.0844638550        1.5956424767       -1.2457750807
 H          0.9338042754        2.2621170930       -1.2817047257
 H         -0.4479694162        1.6171388863       -0.3086813998
 H         -0.3723700079        1.8554935347       -3.4095682407
 H         -1.7584570083        1.2196634601       -2.4360254082
 H          1.1089771445        0.0801031420       -2.4886213821
