  62
        -98.94510862
 C          2.4580780616       -1.2264767662        0.1098065759
 C          3.3610048477       -0.6587947915       -0.8280373259
 C          4.1371862156        0.4960334438       -0.3675542144
 C          3.9757278543        0.9472771085        0.8892428761
 C          4.7049519775        2.1038748992        1.5169175923
 C          4.0847579986        3.4731940532        1.2066917231
 C          4.2924574075        3.9721316696       -0.2238776801
 H          4.0048679599        5.0252416773       -0.2397391773
 H          5.3521780269        3.9195520465       -0.4754052379
 C          3.4717750322        3.2214917506       -1.2821660661
 H          2.6627771814        2.6711693845       -0.7947190626
 H          3.0025181377        3.9414399711       -1.9565790379
 C          4.2823646321        2.2541566636       -2.1452179067
 H          3.5950985179        1.7493349177       -2.8287567589
 H          5.0034030326        2.8148505590       -2.7440680139
 C          5.0371365302        1.1791703234       -1.3523862490
 H          5.8939365715        1.6190478226       -0.8427514158
 H          5.3954773683        0.4232409339       -2.0552164398
 H          3.0148544647        3.4305007218        1.4258247836
 H          4.5348161711        4.1968584652        1.8903165138
 H          5.7480933930        2.0952234051        1.1996024290
 H          4.6675735827        1.9459471416        2.5969557485
 O          3.1150208130        0.3669187540        1.7650934405
 C          2.3184202055       -0.7087748060        1.3973038101
 O          1.5621996161       -1.0964251708        2.3115011248
 O          3.5148422265       -1.1050273915       -1.9954585662
 C          1.6133800542       -2.3959527756       -0.3727949170
 C          0.2277914787       -1.8927420138       -0.6987040944
 C         -0.1337214646       -1.6318176649       -2.0160821265
 C         -1.3780833685       -1.1063369213       -2.3154098646
 C         -2.2826281996       -0.8207658984       -1.3081136736
 C         -1.9245219180       -1.0632679412        0.0112110436
 C         -0.6854931447       -1.6112591413        0.3074993872
 H         -0.4078805047       -1.7728934777        1.3380851681
 N         -2.8274578612       -0.7418398058        1.0454635413
 S         -3.3216320652        0.8661062005        1.1136043983
 O         -2.3363852491        1.7488577801        0.5305242187
 O         -3.6659304436        1.1067395319        2.4981529945
 C         -4.8126399376        0.8843264843        0.1389278702
 C         -4.9041738393        1.7019474739       -0.9703536664
 C         -6.0761369218        1.6971432203       -1.7110946017
 C         -7.1298216467        0.8801440141       -1.3308404161
 C         -7.0231060236        0.0673063331       -0.2119493703
 C         -5.8547644553        0.0678433618        0.5330382270
 H         -5.7309414411       -0.5437369685        1.4110378333
 H         -7.8448913798       -0.5659430868        0.0811430299
 H         -8.0397047542        0.8772610749       -1.9099923388
 H         -6.1610598214        2.3289225232       -2.5806418873
 H         -4.0566678491        2.3163321539       -1.2299905160
 H         -2.4907554834       -1.0271584875        1.9551364031
 H         -3.2502105705       -0.4020304904       -1.5321241557
 H         -1.6448746657       -0.9117637068       -3.3430015562
 H          0.5805627069       -1.8254472132       -2.8034527262
 H          2.0830097942       -2.7176043970       -1.3119273217
 C          1.6023659057       -3.5691735223        0.5849150505
 C          1.1698455545       -4.9117444241        0.0788874354
 C          2.6100498127       -4.6639997095        0.4101272042
 H          3.0253655404       -5.1256728228        1.2933772972
 H          3.3132261636       -4.5708949391       -0.4045515100
 H          0.5932531705       -5.5474491594        0.7330039470
 H          0.8954361994       -4.9860553980       -0.9624607319
 H          1.3376735802       -3.3019059078        1.5995900146
