  62
        -98.93795832
 C         -1.6133302690       -1.7127966216        0.2228179477
 C         -1.5828441203       -0.6020077594       -0.6505436924
 C         -2.6405034918        0.4132223034       -0.4649693802
 C         -3.5616407827        0.2339271247        0.4984886234
 C         -4.7283523846        1.1152869550        0.8663211300
 C         -5.5716931884        1.6549026420       -0.2998759754
 C         -5.4151388393        3.1607389742       -0.5183620981
 H         -5.3744511643        3.6512562560        0.4563928117
 H         -6.3036207016        3.5333452861       -1.0329618059
 C         -4.1968789747        3.5726537688       -1.3432581103
 H         -4.1230206814        4.6618994564       -1.3025892810
 H         -4.3578570233        3.2981239687       -2.3880819491
 C         -2.8653641963        2.9736791153       -0.8849867759
 H         -2.8100111882        2.9694907245        0.2030212472
 H         -2.0663770973        3.6255020241       -1.2456720095
 C         -2.6028269549        1.5634645750       -1.4356657267
 H         -1.6023693745        1.5221436678       -1.8784578277
 H         -3.2968541387        1.3503726618       -2.2542473054
 H         -6.6202368745        1.4551230366       -0.0733769525
 H         -5.3316968992        1.1128838954       -1.2135079444
 H         -4.3625893791        1.9456898941        1.4747631095
 H         -5.3510624946        0.5012107143        1.5207092256
 O         -3.5355184877       -0.8426886473        1.3348514656
 C         -2.5770841899       -1.8297003309        1.2271231457
 O         -2.6862985689       -2.7476545575        2.0632695553
 O         -0.7229264935       -0.4484614657       -1.5584591600
 C         -0.5858073563       -2.8310837494        0.1294109254
 C          0.7629463599       -2.2624751342        0.4931874810
 C          1.1083059567       -2.1208745838        1.8344041789
 C          2.3014952161       -1.5242604821        2.1979451822
 C          3.1611861899       -1.0272410369        1.2331171693
 C          2.8135965274       -1.1472642214       -0.1054837568
 C          1.6372164628       -1.7876516514       -0.4707184360
 H          1.3829192764       -1.8686166706       -1.5150326199
 N          3.6399705344       -0.5786583670       -1.0908940441
 S          4.1892135337        0.9757292397       -0.8006918606
 O          4.2962722631        1.5967184253       -2.1033012464
 O          5.4173919724        0.9111778060       -0.0452949751
 C          2.9422477213        1.7945698513        0.1853222927
 C          1.6108056819        1.7020606916       -0.1692640225
 C          0.6659379472        2.3423282521        0.6165371349
 C          1.0614921406        3.0723000332        1.7261861370
 C          2.4029815720        3.1651375238        2.0621803687
 C          3.3519376294        2.5170351963        1.2885817669
 H          4.4038805619        2.5484548986        1.5223000777
 H          2.7107723682        3.7330753773        2.9253547603
 H          0.3187534130        3.5675230129        2.3316280222
 H         -0.3767153757        2.2539503452        0.3569623084
 H          1.3030572231        1.1245779119       -1.0271092437
 H          3.2567031040       -0.6515319802       -2.0227136550
 H          4.0872952457       -0.5415832431        1.4964091739
 H          2.5605787294       -1.4320100160        3.2415688804
 H          0.4204122624       -2.4753386343        2.5894380442
 H         -0.8688208817       -3.5621798641        0.8977262580
 C         -0.6215575699       -3.5096341484       -1.2244529599
 C          0.0646831274       -4.8297900441       -1.4009411782
 C         -1.4321177516       -4.7574877529       -1.3957756831
 H         -1.9597361837       -4.9053740186       -2.3262393738
 H         -1.9602483280       -5.1330568404       -0.5314744767
 H          0.5668433254       -5.0311725494       -2.3349159564
 H          0.5549450938       -5.2544692493       -0.5380052555
 H         -0.6079409406       -2.8162085217       -2.0560948026
