  62
        -98.93910158
 C         -2.3903008704       -1.2798760003        0.0049624891
 C         -3.0893274201       -0.4959448702        0.9495430493
 C         -3.8366106199        0.6671217200        0.4331359194
 C         -3.8033430700        0.9198318600       -0.8887064806
 C         -4.4428406199        2.0646221302       -1.6273655405
 C         -3.6615035496        3.3797293600       -1.4626994406
 C         -3.1507274694        3.6545673899       -0.0500461506
 H         -2.5270501995        2.8183429497        0.2736779393
 H         -2.5044819692        4.5355528997       -0.0958651407
 C         -4.2319975892        3.9209761201        0.9949220195
 H         -3.7248405090        4.1506752100        1.9356589694
 H         -4.8004882390        4.8058619302        0.7000250996
 C         -5.2163251194        2.7780046003        1.2483573496
 H         -5.7838804592        3.0328548004        2.1481786497
 H         -5.9376363595        2.7012700105        0.4395290997
 C         -4.5715043696        1.4210821501        1.5155443495
 H         -5.3453879397        0.7360292203        1.8828185296
 H         -3.8597314695        1.5217481300        2.3429573294
 H         -2.7924884697        3.3399698699       -2.1244866207
 H         -4.2970204895        4.2043818102       -1.7891624005
 H         -4.4465777501        1.7938799502       -2.6853542205
 H         -5.4750105098        2.1810907204       -1.3107274604
 O         -3.0988311803        0.1458878299       -1.7626702007
 C         -2.3698510705       -0.9550688003       -1.3509930808
 O         -1.7680901307       -1.5471288504       -2.2663861209
 O         -3.0813451000       -0.7444412902        2.1869743992
 C         -1.5827469306       -2.4714348005        0.4892521390
 C         -0.1183707006       -2.2127917908        0.2306535489
 C          0.7116997092       -3.0814034009       -0.4639747513
 C          2.0376784992       -2.7512398612       -0.6886202214
 C          2.5648137295       -1.5611890213       -0.2225718215
 C          1.7441552998       -0.6870029612        0.4790570287
 C          0.4185137497       -1.0208820109        0.7033401188
 H         -0.2220127001       -0.3370199608        1.2474648289
 N          2.2706914501        0.5211365687        0.9719437886
 S          3.1004999202        1.5102223285       -0.1036192715
 O          2.9861711705        2.8435446986        0.4473383886
 O          2.6350284500        1.3335568487       -1.4598651914
 C          4.7887295301        0.9647484182        0.0457190283
 C          5.4970020099        0.5980005381       -1.0816181318
 C          6.8121578398        0.1824853078       -0.9405187619
 C          7.3917977999        0.1415267476        0.3182589780
 C          6.6672524802        0.5158354277        1.4402680681
 C          5.3530346902        0.9338238980        1.3061004183
 H          4.7562706504        1.2354753181        2.1505668183
 H          7.1212906903        0.4824596876        2.4174851480
 H          8.4144390199       -0.1839429126        0.4255090179
 H          7.3768853696       -0.1081553023       -1.8117592920
 H          5.0015154598        0.6389021982       -2.0387169717
 H          1.6018544203        1.0632833288        1.5003837887
 H          3.5945105095       -1.2991870616       -0.4030964516
 H          2.6699119190       -3.4319012813       -1.2380344815
 H          0.3185581189       -4.0104868108       -0.8419029512
 H         -1.7357413905       -2.5033687705        1.5782477490
 C         -2.0965743110       -3.7601102303       -0.1142440009
 C         -1.8757508411       -5.0605325704        0.5973863490
 C         -3.2472342310       -4.4598311101        0.5426784592
 H         -3.9922446712       -4.9258677699       -0.0844916407
 H         -3.6498963308       -4.0167595900        1.4419276492
 H         -1.6805832614       -5.9438286904        0.0085034790
 H         -1.3468601610       -5.0307612905        1.5378570189
 H         -2.0676496611       -3.7546902503       -1.1978290409
