  62
        -98.93779910
 C         -1.9902966191       -0.8687605057        0.5595769743
 C         -2.2220378223       -0.1900604183       -0.6583487815
 C         -2.5122090674        1.2511970382       -0.5622054363
 C         -2.5121416445        1.8476623753        0.6443686979
 C         -2.7024154810        3.2985784142        1.0358488291
 C         -3.3162833899        4.2986281582        0.0589581376
 C         -4.7808157027        4.0386604914       -0.2905793605
 H         -5.3884805350        4.2183584195        0.5997329856
 H         -5.0816817973        4.7623112642       -1.0512437534
 C         -5.0984463597        2.6316488468       -0.7905780333
 H         -6.1669773630        2.5915685160       -1.0185894560
 H         -4.9122786961        1.9084434138        0.0060901345
 C         -4.3390668129        2.1958084058       -2.0424545003
 H         -4.4739940993        2.9379917207       -2.8313866557
 H         -4.7831194228        1.2575784938       -2.3849565667
 C         -2.8312841392        1.9488395575       -1.8529270008
 H         -2.4931495743        1.2809886120       -2.6507100963
 H         -2.2616543987        2.8714364235       -1.9383231329
 H         -3.2604417440        5.2774216673        0.5432651487
 H         -2.7151975245        4.3591222857       -0.8434031768
 H         -3.2984017421        3.2821352258        1.9540089909
 H         -1.7064613167        3.6574744289        1.3203411793
 O         -2.2601264875        1.1521540115        1.7935040051
 C         -1.9910007338       -0.2040979090        1.7824444969
 O         -1.7793242995       -0.6971212951        2.9112761182
 O         -2.1820455437       -0.7572407500       -1.7820723096
 C         -1.6482197693       -2.3457921508        0.5509351025
 C         -0.3955322044       -2.5881414615       -0.2585138796
 C         -0.2121305014       -3.7157812239       -1.0488619432
 C          0.9690864192       -3.8946253255       -1.7482202948
 C          1.9865567541       -2.9620613302       -1.6750168789
 C          1.8107277495       -1.8265596337       -0.8901759769
 C          0.6328137599       -1.6576023340       -0.1823562368
 H          0.5118001106       -0.7786792821        0.4351187837
 N          2.8047720682       -0.8357411509       -0.8370270548
 S          2.8875863225        0.2128913730        0.4766846617
 O          2.8988955185       -0.5330917993        1.7163735403
 O          1.8657531600        1.2216705408        0.3403853902
 C          4.4909692682        0.9375391709        0.1870658278
 C          5.5948806008        0.4254537946        0.8424746019
 C          6.8414855227        0.9749136192        0.5867116661
 C          6.9629668674        2.0197141331       -0.3170176083
 C          5.8458682154        2.5240887779       -0.9663871794
 C          4.5965428489        1.9795572636       -0.7147239909
 H          3.6987542450        2.3423386978       -1.1877912967
 H          5.9431164466        3.3382575445       -1.6662571241
 H          7.9339171281        2.4456225108       -0.5144772382
 H          7.7108241687        0.5871193400        1.0926514174
 H          5.4497382940       -0.3802983500        1.5439682589
 H          3.7161589866       -1.1644896479       -1.1238880816
 H          2.9041473638       -3.1011646681       -2.2256004270
 H          1.0991190406       -4.7753631490       -2.3586070891
 H         -0.9949227268       -4.4533086796       -1.1181375869
 H         -1.4286325251       -2.6118879462        1.5967572529
 C         -2.8344827462       -3.1613599522        0.0771153698
 C         -3.0803575640       -4.5343086029        0.6246627352
 C         -3.9705731806       -3.3975803622        1.0248865959
 H         -4.9787926362       -3.3677476692        0.6400909566
 H         -3.8716541890       -2.9943281232        2.0227347979
 H         -3.4823474441       -5.2884520129       -0.0350388471
 H         -2.3848194272       -4.9121431202        1.3589944908
 H         -3.0794113236       -2.9688539210       -0.9609886120
