  62
        -98.93392248
 C         -2.3139138385        0.1938384191       -0.2150781493
 C         -3.5125603481        0.5457963309       -0.8780470053
 C         -4.7054011894       -0.2470392953       -0.5381904111
 C         -4.5980192905       -1.2485756328        0.3518869168
 C         -5.6643339108       -2.2099622443        0.8145466423
 C         -7.0544787729       -1.6346707075        1.1191014497
 C         -7.0577607493       -0.2042779545        1.6777360155
 H         -7.6660971685       -0.1787684742        2.5837647689
 H         -6.0449958058        0.0910315368        1.9574513803
 C         -7.6349879324        0.8186565877        0.6963109155
 H         -8.5269340281        0.3930801776        0.2314133908
 H         -7.9484512988        1.7035090776        1.2554697634
 C         -6.6782279530        1.2911307538       -0.3976231589
 H         -7.2428922407        1.9202846533       -1.0898868336
 H         -5.8962296354        1.9181960483        0.0392338643
 C         -5.9861606405        0.1761377538       -1.1985447556
 H         -5.7022117913        0.5881223674       -2.1707296361
 H         -6.6538886175       -0.6665370976       -1.3598382372
 H         -7.6667728897       -1.6648353609        0.2189544867
 H         -7.5223361203       -2.3075752369        1.8396614609
 H         -5.2546187945       -2.6739376325        1.7148698493
 H         -5.7602078117       -2.9979986303        0.0619910369
 O         -3.4180468321       -1.5588981840        0.9612013257
 C         -2.2537728608       -0.8533310796        0.7025142867
 O         -1.2606404091       -1.2512335314        1.3405016492
 O         -3.5813797873        1.4727358627       -1.7293218295
 C         -1.0500103883        0.9779738515       -0.5153351785
 C          0.0249641980        0.0532929942       -1.0296649570
 C         -0.2622378220       -0.7644576873       -2.1206200054
 C          0.6896564485       -1.6269297081       -2.6269790103
 C          1.9533578304       -1.6847745103       -2.0652117519
 C          2.2497677812       -0.8751779044       -0.9758337784
 C          1.2890139083       -0.0109442132       -0.4674128361
 H          1.5484264647        0.6048475884        0.3769942235
 N          3.5129927682       -0.9335062913       -0.3657963399
 S          4.1705793800        0.4779248364        0.2836047675
 O          3.6300634836        0.6915709169        1.6023087320
 O          4.0226970191        1.5697635598       -0.6526132209
 C          5.8844820842        0.0001210783        0.4098442100
 C          6.7727630968        0.3819833714       -0.5777903235
 C          8.0961089459       -0.0189530693       -0.4807094800
 C          8.5058011481       -0.7931424385        0.5943680270
 C          7.6028495777       -1.1680103245        1.5784004209
 C          6.2786964430       -0.7695512139        1.4881845611
 H          5.5435394703       -1.0283559615        2.2324710164
 H          7.9254747345       -1.7670133133        2.4146783393
 H          9.5360233363       -1.1038224606        0.6679171006
 H          8.8012241276        0.2737172075       -1.2419070056
 H          6.4109013336        0.9911088560       -1.3904337919
 H          4.1917436304       -1.4460367740       -0.9120078818
 H          2.6987157663       -2.3580703616       -2.4605546434
 H          0.4501827310       -2.2555970477       -3.4715615485
 H         -1.2482514244       -0.7143234448       -2.5628401553
 H         -1.3203084655        1.6707742536       -1.3267833017
 C         -0.6277849655        1.7879406239        0.6917067813
 C          0.2034055914        3.0222499628        0.5152262085
 C         -1.2352653187        3.1385015717        0.9179959489
 H         -1.4659557861        3.4373788094        1.9295388266
 H         -1.9441447433        3.4924019722        0.1836328583
 H          0.9687291412        3.2349539023        1.2470412515
 H          0.4772021264        3.2995015224       -0.4918192696
 H         -0.4409757115        1.1709593832        1.5645128331
