  62
        -98.93522787
 C         -2.3722566730       -1.4068344781       -0.0302310309
 C         -3.1221681969       -0.7343699616        0.9664063025
 C         -4.0021038760        0.3676781846        0.5336850675
 C         -4.0484448383        0.6773858613       -0.7749368049
 C         -4.8312625019        1.7707572148       -1.4523954674
 C         -4.2117926051        3.1612425839       -1.2411178419
 C         -3.7656554660        3.4550923969        0.1887801948
 H         -3.0293196969        2.7093265802        0.4956711681
 H         -3.2574162928        4.4231992014        0.1849176248
 C         -4.8891358564        3.5198117072        1.2210298701
 H         -4.4400985301        3.8344573348        2.1665275965
 H         -5.6054763911        4.2880961699        0.9217498485
 C         -5.6485525132        2.2143043357        1.4686003813
 H         -6.3683326271        2.0213269809        0.6777219632
 H         -6.2255802860        2.3440318952        2.3887054991
 C         -4.7598648769        0.9928281274        1.6799433087
 H         -5.3694632610        0.1855210506        2.1032801464
 H         -4.0120801296        1.2206949824        2.4482082072
 H         -4.9351392906        3.9132169673       -1.5610584128
 H         -3.3327643222        3.2423748123       -1.8858013754
 H         -4.8224033469        1.5455837708       -2.5212463854
 H         -5.8644883879        1.7532098268       -1.1186241413
 O         -3.3055247353        0.0084089705       -1.7009863254
 C         -2.4504490819       -1.0296208406       -1.3701259238
 O         -1.8449274116       -1.5070365892       -2.3495128900
 O         -3.0648028974       -1.0460195885        2.1866767107
 C         -1.4775848518       -2.5418530742        0.4387243606
 C         -0.0763511537       -2.0434925530        0.6834765757
 C          0.5457996293       -2.2173224113        1.9136143418
 C          1.8221250873       -1.7275176552        2.1323092130
 C          2.5022474963       -1.0572568459        1.1313915074
 C          1.8862728022       -0.8726560851       -0.0997259137
 C          0.6088936548       -1.3661115128       -0.3166116568
 H          0.1330726075       -1.2182660815       -1.2755017407
 N          2.5692468457       -0.1875242098       -1.1250942746
 S          3.0498544554        1.3861706866       -0.7734658289
 O          2.1809351998        1.9952998416        0.2082336928
 O          3.1457242200        2.0553949051       -2.0524286016
 C          4.6857549562        1.1809468736       -0.1014086466
 C          4.9782538097        1.6569335181        1.1615620775
 C          6.2598804679        1.4848203772        1.6615716456
 C          7.2203020181        0.8443648364        0.8935692718
 C          6.9108348769        0.3748593371       -0.3744799370
 C          5.6320499725        0.5441727074       -0.8806098050
 H          5.3498317990        0.1977367931       -1.8608589367
 H          7.6603601612       -0.1224992576       -0.9686938194
 H          8.2161253232        0.7103953893        1.2855765477
 H          6.5023130890        1.8496540854        2.6467117954
 H          4.1964591547        2.1422218249        1.7239423456
 H          2.0687092302       -0.2025644809       -2.0034161736
 H          3.4954147314       -0.6722934205        1.2959154945
 H          2.2922440667       -1.8678974580        3.0934975362
 H          0.0145198512       -2.7237954412        2.7060309436
 H         -1.8967757511       -2.8379280599        1.4132269888
 C         -1.5349776502       -3.7619604956       -0.4708741562
 C         -0.3784010270       -4.2521234186       -1.2848237976
 C         -0.8179974657       -5.0196311428       -0.0766962215
 H         -1.3176016947       -5.9664861427       -0.2135983803
 H         -0.1864681612       -4.9730967541        0.7977456124
 H         -0.5938476016       -4.6507256419       -2.2645528968
 H          0.5529259043       -3.7107864438       -1.2332134124
 H         -2.5162371861       -3.8823955855       -0.9191049542
