  62
        -98.94067731
 C          1.4185931985        1.4415871838        0.4226018267
 C          1.8933373714        0.3359683152        1.1749632959
 C          2.9830064236       -0.4389955000        0.5720383844
 C          3.4517477625       -0.0962544773       -0.6411233407
 C          4.5829573646       -0.7627284678       -1.3761583446
 C          4.1645208225       -2.0072574941       -2.1705887001
 C          3.8363649588       -3.2373134136       -1.3238114550
 H          3.7725784915       -4.0871041026       -2.0062179920
 H          4.6599843127       -3.4332939923       -0.6365305637
 C          2.5206415273       -3.1335184991       -0.5395594388
 H          1.9072709241       -2.3316470434       -0.9573027485
 H          1.9553269775       -4.0597998796       -0.6571514489
 C          2.6915695339       -2.8942343086        0.9605203383
 H          3.1810535603       -3.7573257474        1.4168908534
 H          1.6985224830       -2.7900310138        1.4031054598
 C          3.4946099611       -1.6362065372        1.3145895751
 H          3.3745567026       -1.4419685125        2.3832561600
 H          4.5529246614       -1.7902242716        1.1042160958
 H          3.3031012279       -1.7509595327       -2.7916433415
 H          4.9917019695       -2.2607691009       -2.8377444645
 H          4.9760989684       -0.0229347115       -2.0769315526
 H          5.3720871715       -1.0270572277       -0.6715251052
 O          2.9404402248        0.9416595645       -1.3520468522
 C          1.8984455942        1.7199579899       -0.8588690095
 O          1.5187343476        2.5998845037       -1.6520816242
 O          1.4304847353        0.0146303845        2.3016267677
 C          0.2932105880        2.2636433224        1.0260888880
 C         -0.8446667596        2.3750322589        0.0448493355
 C         -1.1599669331        3.5483704380       -0.6274682794
 C         -2.1960751216        3.5702665428       -1.5435947588
 C         -2.9503681429        2.4369780534       -1.7868529382
 C         -2.6475448277        1.2591969984       -1.1138810496
 C         -1.5942441900        1.2340454633       -0.2145012962
 H         -1.3530356658        0.3127216534        0.2977268499
 N         -3.3930467967        0.0869676101       -1.3283550612
 S         -3.9138626002       -0.7783588519        0.0106822025
 O         -5.1028274522       -1.4697841390       -0.4425183449
 O         -4.0773344921        0.0800744494        1.1603577987
 C         -2.6459758717       -1.9895307940        0.3118328443
 C         -2.0809069878       -2.0895499361        1.5672299786
 C         -1.1507495142       -3.0884582934        1.8066380873
 C         -0.8047798968       -3.9657285756        0.7906449375
 C         -1.3732021442       -3.8451243147       -0.4686304810
 C         -2.3059885298       -2.8505723130       -0.7129622375
 H         -2.7796162348       -2.7327228263       -1.6734323313
 H         -1.0956746539       -4.5258135828       -1.2573407208
 H         -0.0880189114       -4.7483398266        0.9839574742
 H         -0.7007726868       -3.1736827628        2.7831181003
 H         -2.3753440275       -1.3859339637        2.3300433730
 H         -4.1367130765        0.1859652615       -2.0049042134
 H         -3.7652510995        2.4587775196       -2.4950394655
 H         -2.4240520905        4.4842831461       -2.0709713592
 H         -0.5750997449        4.4362082675       -0.4523169077
 H         -0.0586053085        1.6562782254        1.8769190784
 C          0.7208583670        3.6031022031        1.6061070060
 C          2.0623761241        3.7599598079        2.2563085462
 C          1.7609171231        4.4791347315        0.9774796650
 H          1.6140375686        5.5488320055        1.0161009556
 H          2.2279537584        4.1369894875        0.0679683760
 H          2.1299173342        4.3329680251        3.1688153361
 H          2.7337656113        2.9142372686        2.2191524671
 H         -0.1098776754        4.1099771211        2.0887443758
