  62
        -98.94090362
 C          2.2902558489        0.8545602018       -0.1682429802
 C          3.5882301182        1.2292355731        0.2550410792
 C          4.6947876230        0.4506137923       -0.3112820880
 C          4.4352886553       -0.5353818512       -1.1894278950
 C          5.4582057222       -1.4002602584       -1.8752670289
 C          5.9221576416       -2.6020252536       -1.0406736912
 C          6.8349962920       -2.2616884935        0.1380439863
 H          7.2564400476       -3.2021552077        0.4984167063
 H          7.6640701420       -1.6462291641       -0.2123067585
 C          6.1265634469       -1.5591698970        1.3046566801
 H          6.4256327913       -2.0250242929        2.2463272860
 H          5.0466696082       -1.6953595472        1.2092768333
 C          6.4287662798       -0.0652133538        1.4219026608
 H          5.8482228869        0.3377586503        2.2556533456
 H          7.4875070621        0.0778807309        1.6486303992
 C          6.0836700279        0.7487708964        0.1678609022
 H          6.1249721928        1.8098361800        0.4253657303
 H          6.8090694378        0.5510370454       -0.6208014009
 H          6.4642074361       -3.2734045617       -1.7106738077
 H          5.0404816635       -3.1355797935       -0.6778669128
 H          4.9859305281       -1.7753307285       -2.7857630760
 H          6.3209176221       -0.7949701954       -2.1549368689
 O          3.1725737357       -0.8556152630       -1.5819294745
 C          2.0698319509       -0.1864023287       -1.0695485911
 O          0.9746914860       -0.6046253758       -1.4940479555
 H         -1.6160244632        1.2033718668       -0.0185305480
 C         -1.1952123287        0.5726896722        0.7448576047
 C          0.1505029273        0.6541538758        1.0649162904
 C          0.6529555972       -0.1787705462        2.0620848593
 C         -0.1666358053       -1.0860243909        2.7032406495
 C         -1.5032318750       -1.1860768933        2.3583049486
 C         -2.0187519819       -0.3512142787        1.3747624401
 N         -3.3891487046       -0.4049933842        1.0489384234
 S         -3.8885609604       -0.4412922993       -0.5645273222
 O         -3.4716350789       -1.6783823462       -1.1899001512
 O         -3.5027610970        0.7801745956       -1.2207517800
 C         -5.6554584902       -0.4510762728       -0.3170138427
 C         -6.2680244521        0.7321956947        0.0497355893
 C         -7.6360098867        0.7388215464        0.2693649858
 C         -8.3653287341       -0.4316274214        0.1195949756
 C         -7.7372056093       -1.6110151803       -0.2502940494
 C         -6.3684097072       -1.6244016127       -0.4700283581
 H         -5.8388487538       -2.5157928648       -0.7659199388
 H         -8.3068723409       -2.5186999447       -0.3682619319
 H         -9.4303278674       -0.4236401460        0.2900359642
 H         -8.1282146445        1.6545241800        0.5548282859
 H         -5.6617482541        1.6176488795        0.1457595833
 H         -3.8541610761       -1.1606646022        1.5371425255
 H         -2.1421095798       -1.9051832965        2.8490610061
 H          0.2378798260       -1.7287050087        3.4709389869
 H          1.7012250047       -0.1086477844        2.3202808563
 C          1.0938000722        1.6109557572        0.3798589958
 H          1.5035045162        2.2952300290        1.1380949953
 C          0.4425034454        2.4320060109       -0.7123406349
 C         -0.3148922006        3.6780241156       -0.3666784501
 C          1.0136880302        3.7745372990       -1.0527855643
 H          1.0409046845        4.0745694463       -2.0896115875
 H          1.8645383676        4.1096379220       -0.4776812973
 H         -0.3684831880        3.9553765446        0.6751926336
 H         -1.2054692410        3.9081249020       -0.9319405111
 H          0.0741602748        1.8224510959       -1.5312719531
 O          3.8096441680        2.1672082631        1.0666673167
