  62
        -98.93733740
 C         -1.9099610504       -0.2268777604        0.4692290004
 C         -2.7682641004       -0.4423192096       -0.6342890697
 C         -4.0617497002        0.2688229207       -0.6100791194
 C         -4.3555603701        1.0889920303        0.4148539910
 C         -5.5641998598        1.9625564104        0.6787310314
 C         -6.8655572999        1.7519408711       -0.0914963487
 C         -7.5723962702        0.4270646011        0.1918683706
 H         -7.9459609502        0.4443197407        1.2188997506
 H         -8.4350812802        0.3530249717       -0.4739764794
 C         -6.7143990605       -0.8258284090        0.0338816000
 H         -5.9139188705       -0.8180846495        0.7765021300
 H         -7.3455263907       -1.6918775789        0.2511903596
 C         -6.1046020905       -1.0308910285       -1.3516057501
 H         -6.8907267305       -0.9948072579       -2.1082304801
 H         -5.6664746608       -2.0322545686       -1.3719172605
 C         -4.9986785903       -0.0350013485       -1.7435406096
 H         -4.3922194004       -0.4958739183       -2.5284079198
 H         -5.4163445701        0.8823711818       -2.1512580691
 H         -7.5397569097        2.5569548611        0.2138696517
 H         -6.6970864598        1.8715629016       -1.1576817787
 H         -5.7656123499        1.8721815400        1.7509502213
 H         -5.2288768296        2.9928541504        0.5147563519
 O         -3.4765693800        1.2975117495        1.4391356911
 C         -2.2562728002        0.6539468692        1.4962883908
 O         -1.5749208501        0.9398909786        2.5025226310
 H          1.3567634099        0.7873187584        1.4522564409
 C          1.3995278298        0.6492024189        0.3797467509
 C          0.4723187196       -0.1805490306       -0.2349920795
 C          0.5251002896       -0.3320269000       -1.6161504896
 C          1.4836298298        0.3353874102       -2.3574644193
 C          2.4117645600        1.1559310896       -1.7406920089
 C          2.3641998700        1.3157807190       -0.3626219088
 N          3.3323598202        2.1224179385        0.2721754716
 S          4.9212646201        1.6339763182        0.0349795114
 O          5.6599876602        2.1486948675        1.1659559617
 O          5.3645991302        2.0709139487       -1.2643305284
 C          4.8347577197       -0.1469584918        0.0877240105
 C          4.8645280495       -0.8715628213       -1.0862408898
 C          4.6934112092       -2.2454719713       -1.0289918705
 C          4.4924401690       -2.8665848118        0.1934641992
 C          4.4718725291       -2.1252920224        1.3651142996
 C          4.6390329695       -0.7512037324        1.3138753602
 H          4.6322614496       -0.1422217328        2.2040097405
 H          4.3195366190       -2.6124017728        2.3151668493
 H          4.3509052987       -3.9349268018        0.2357285487
 H          4.7098707990       -2.8249860908       -1.9376925808
 H          5.0233860496       -0.3504882609       -2.0157079196
 H          3.1544959602        2.2519787680        1.2582059117
 H          3.1733474601        1.6736733497       -2.3014419286
 H          1.5106516498        0.2133729207       -3.4295454293
 H         -0.2061401105       -0.9570693295       -2.1034423199
 C         -0.5523775905       -0.8973987708        0.6107159101
 H         -0.2679273605       -0.7573899813        1.6622472902
 C         -0.5768151009       -2.3844434706        0.3169270194
 C          0.5956033789       -3.2156711211        0.7406946890
 C         -0.7168494412       -3.3522289111        1.4511887089
 H         -1.2995255314       -4.2476007709        1.2944334485
 H         -0.8036567811       -2.9462956316        2.4488768591
 H          0.9159517087       -4.0182941309        0.0951077486
 H          1.4032335790       -2.7129719716        1.2517112392
 H         -1.0656804209       -2.6355388400       -0.6141447408
 O         -2.4933141706       -1.1888002592       -1.6093206301
