  62
        -98.94476940
 C         -1.8340760906        0.4471031022        0.5871296746
 C         -2.8599634564        1.2823074110        0.0835058574
 C         -4.2295405281        0.7853049758        0.2535320087
 C         -4.4406571819       -0.3876001636        0.8783021201
 C         -5.7810773039       -1.0129117026        1.1553113592
 C         -6.3487627995       -1.8212479473       -0.0194494297
 C         -6.8550995542       -0.9880151429       -1.1975020596
 H         -7.4188808014       -1.6608965842       -1.8467069087
 H         -7.5494100384       -0.2302962898       -0.8330058286
 C         -5.7463141581       -0.3197870059       -2.0223871357
 H         -4.7898075963       -0.7989797047       -1.8008041327
 H         -5.9417094532       -0.4724504105       -3.0862147502
 C         -5.6098192473        1.1862692643       -1.7982648841
 H         -4.7741700089        1.5485219751       -2.4024216265
 H         -6.5159131742        1.6910982584       -2.1403927871
 C         -5.3486616687        1.5866871798       -0.3402362470
 H         -6.2567409140        1.4694640032        0.2506259544
 H         -5.0509182286        2.6378735729       -0.3211860610
 H         -5.5815042350       -2.5168868548       -0.3673097636
 H         -7.1830687490       -2.4124509629        0.3651350140
 H         -5.6387423110       -1.6888716481        2.0012510960
 H         -6.4934469674       -0.2397387713        1.4446649739
 O         -3.4271028101       -1.1536358934        1.3633427058
 C         -2.1014968550       -0.7697002291        1.2141733686
 O         -1.2783020016       -1.5810747999        1.6787984511
 O         -2.6406690108        2.3874454968       -0.4806148695
 C         -0.3895887485        0.8931876562        0.4445296146
 C          0.3916735942       -0.1314079550       -0.3384458862
 C         -0.1124033799       -0.5545686305       -1.5670385194
 C          0.5456870811       -1.5130428229       -2.3106917031
 C          1.7307323446       -2.0625555691       -1.8523097095
 C          2.2487142074       -1.6401704039       -0.6350636918
 C          1.5859431253       -0.6720416559        0.1099983596
 H          2.0045223113       -0.3765166224        1.0571485994
 N          3.4452033341       -2.1835920452       -0.1459017090
 S          4.5496235181       -1.2098867599        0.6374015140
 O          5.8107561256       -1.9050033466        0.4891120338
 O          4.1329297087       -0.9505207114        1.9920413143
 C          4.5789082470        0.3102078678       -0.2974671450
 C          4.3735742847        1.5117574799        0.3472538757
 C          4.3913706730        2.6835666769       -0.3926614907
 C          4.6105161407        2.6326071944       -1.7600963188
 C          4.8214785589        1.4172097586       -2.3935872223
 C          4.8079557003        0.2437032927       -1.6579999608
 H          4.9785707024       -0.7139919941       -2.1217955584
 H          4.9948224755        1.3812014765       -3.4570130452
 H          4.6186259613        3.5452825021       -2.3348724439
 H          4.2319228336        3.6292171703        0.1006489309
 H          4.2007887261        1.5056475415        1.4109275187
 H          3.8941587024       -2.8484316453       -0.7578765918
 H          2.2428107889       -2.8204035815       -2.4254226246
 H          0.1362705336       -1.8362243558       -3.2558737955
 H         -1.0393994337       -0.1265570800       -1.9235561287
 H         -0.4289701598        1.8211790888       -0.1453239583
 C          0.1941390940        1.2069184756        1.8051946712
 C          1.2703995147        2.2390242147        1.9480186354
 C         -0.1165246768        2.5312503165        2.4340371107
 H         -0.2963899335        2.5675506837        3.4980792506
 H         -0.7254803260        3.2180269576        1.8644765348
 H          2.0439646238        2.0711227355        2.6824037454
 H          1.6081120525        2.7336988023        1.0501668983
 H          0.2260394430        0.3406134603        2.4572217004
