  62
        -98.93280497
 C          1.8841342863        1.6594723231       -0.2081942995
 C          2.6453277879        1.1188571887        0.8592866774
 C          3.8020055330        0.2706078601        0.5214607666
 C          4.0848309995        0.0650939915       -0.7778989043
 C          5.1620217987       -0.8019832561       -1.3737936473
 C          4.8180930415       -2.2985297841       -1.3044329309
 C          4.2453705077       -2.7655874647        0.0314660115
 H          3.3392454965       -2.1973004582        0.2515575258
 H          3.9481885652       -3.8115738138       -0.0834237550
 C          5.2034168031       -2.6787396877        1.2174651281
 H          4.6968903496       -3.1289385747        2.0750013201
 H          6.0912237500       -3.2781419103        1.0038489715
 C          5.6511337336       -1.2708806500        1.6166905091
 H          6.1138672144       -1.3455163724        2.6050676913
 H          6.4186640552       -0.8976560633        0.9440164390
 C          4.5208201880       -0.2540784323        1.7408262699
 H          3.7426832777       -0.6588445280        2.3980581677
 H          4.9040750679        0.6321807925        2.2608564393
 H          5.7175080132       -2.8708863773       -1.5380968515
 H          4.0733290588       -2.5098617208       -2.0762126377
 H          5.2513230157       -0.5141691443       -2.4236938882
 H          6.1143242342       -0.6003317703       -0.8923422645
 O          3.3488684222        0.6314093317       -1.7735835819
 C          2.2377972587        1.4327984007       -1.5372422393
 O          1.7148726333        1.8634028531       -2.5806982155
 H         -0.0686032021       -0.0843649432       -0.4093653567
 C         -0.5545729948        0.2743620748        0.4869915118
 C         -0.2883751417        1.5509619686        0.9610314967
 C         -0.9181551536        1.9747482791        2.1261944518
 C         -1.7870418622        1.1398419594        2.8045216465
 C         -2.0617524557       -0.1264768422        2.3198296947
 C         -1.4406928107       -0.5586056044        1.1545228767
 N         -1.7082275126       -1.8372713181        0.6150664899
 S         -2.5781818691       -1.8516508569       -0.8176099790
 O         -2.8070912197       -3.2469086471       -1.1189877505
 O         -1.8836602719       -1.0753464322       -1.8107477869
 C         -4.1237745855       -1.0697836877       -0.3862159200
 C         -4.1846010802        0.3088773343       -0.3370495837
 C         -5.3620363758        0.9120531871        0.0764659984
 C         -6.4508265128        0.1313895351        0.4335587736
 C         -6.3742618065       -1.2521509198        0.3777124622
 C         -5.1984773758       -1.8613728639       -0.0302531137
 H         -5.0934692320       -2.9325456219       -0.0926999490
 H         -7.2234309681       -1.8567719873        0.6526259855
 H         -7.3645475610        0.6052005115        0.7557427663
 H         -5.4208170990        1.9876575412        0.1183358121
 H         -3.3216786820        0.8851521660       -0.6288518660
 H         -2.1477887441       -2.4670797715        1.2730397755
 H         -2.7414335851       -0.7821910754        2.8432948912
 H         -2.2576329271        1.4779454477        3.7147602182
 H         -0.7023210189        2.9605242105        2.5107081127
 C          0.6644667507        2.4592393558        0.2220044769
 H          1.0278182859        3.2020096853        0.9527296321
 C         -0.0302941664        3.2274070354       -0.8895612947
 C         -1.0969221756        2.6248601850       -1.7483974297
 C         -1.4555768264        3.6736859050       -0.7409182613
 H         -1.7231437898        4.6558819945       -1.0997462261
 H         -1.9913641250        3.3618195334        0.1431454963
 H         -1.0937695893        2.8826502248       -2.7965765918
 H         -1.3753335062        1.5963873778       -1.5725843460
 H          0.6470333851        3.9117472690       -1.3883568241
 O          2.3598360196        1.3380204804        2.0678841356
