  62
        -98.94448237
 C         -1.9417600209       -1.0820986091       -0.1870086393
 C         -2.4518324303        0.0449741507       -0.8750283702
 C         -3.9057963503        0.2339222913       -0.7897431005
 C         -4.6607134807       -0.6600965379       -0.1256779400
 C         -6.1561570907       -0.6120275872        0.0335366697
 C         -6.6292491106        0.2764987138        1.1923217090
 C         -6.4892002999        1.7812107636        0.9579008680
 H         -6.9558312496        2.0447643831        0.0082687477
 H         -7.0527533498        2.2820323344        1.7476527975
 C         -5.0426639597        2.2949035930        0.9827157578
 H         -4.9876805994        3.2000847234        1.5915939372
 H         -4.3992188501        1.5508602631        1.4577529284
 C         -4.4674165993        2.6388382018       -0.3914306823
 H         -3.4280023092        2.9511160615       -0.2598477224
 H         -5.0198620689        3.4777005018       -0.8207044130
 C         -4.4873576897        1.4764872111       -1.3928856915
 H         -5.5042645197        1.2946346413       -1.7400248315
 H         -3.8675165394        1.7515073503       -2.2498732216
 H         -7.6849541607        0.0539103444        1.3635345390
 H         -6.0800796608       -0.0043656558        2.0939690793
 H         -6.6140868305       -0.2746158676       -0.8965568106
 H         -6.4811253112       -1.6359489669        0.2302372704
 O         -4.1337342413       -1.7546766477        0.4854487108
 C         -2.7662123614       -1.9775133383        0.4936732612
 O         -2.4130069119       -2.9904265579        1.1311599719
 H          1.7333144197       -0.0057257113       -1.2487096095
 C          1.3770785897        0.4134183695       -0.3232035799
 C          0.2893601494       -0.1372255096        0.3350668503
 C         -0.1380112305        0.4518185314        1.5231885899
 C          0.4889413499        1.5762770015        2.0214499892
 C          1.5696028502        2.1288221206        1.3557143689
 C          2.0128138301        1.5430788096        0.1771934194
 N          3.1016254905        2.0879191386       -0.5230642008
 S          4.3040919801        1.0861904577       -1.1104421199
 O          5.4215345505        1.9698406371       -1.3597517904
 O          3.8254545500        0.3317340371       -2.2396098395
 C          4.6764887295        0.0011241085        0.2547936209
 C          5.4402041795        0.4989941889        1.2927847107
 C          5.6830395690       -0.3063547604        2.3931674413
 C          5.1532640285       -1.5871710701        2.4405836521
 C          4.3907085785       -2.0725459006        1.3898017223
 C          4.1474931189       -1.2727434812        0.2841191817
 H          3.5636171489       -1.6161412616       -0.5537108981
 H          3.9814904580       -3.0696696104        1.4273797330
 H          5.3375222181       -2.2126001096        3.2998028626
 H          6.2803810291        0.0656211799        3.2099308411
 H          5.8427331799        1.4957816287        1.2126499000
 H          3.4990186907        2.9118452188       -0.0959298713
 H          2.0566213605        3.0128078006        1.7384859084
 H          0.1365330399        2.0273057923        2.9368897988
 H         -0.9831809408        0.0203415621        2.0427829000
 C         -0.4474695610       -1.3501692997       -0.1783464689
 H         -0.2912329415       -2.1751541592        0.5322976017
 C          0.0062686690       -1.8000951408       -1.5512932185
 C          1.1438025886       -2.7645184514       -1.6930761677
 C         -0.2580448315       -3.2119104010       -1.9770442676
 H         -0.5472528314       -3.3963526116       -3.0007899075
 H         -0.7424292519       -3.8612809203       -1.2620655472
 H          1.8262347188       -2.6398982523       -2.5211635077
 H          1.6053066383       -3.1256937910       -0.7861717273
 H         -0.1055843606       -1.0271071713       -2.3035575391
 O         -1.7360216199        0.8521626199       -1.5228049707
