  62
        -98.94354381
 C          1.9737752854        1.1052585030        0.3846730201
 C          2.2079957929        0.1634940871       -0.6463338470
 C          2.8949801557       -1.0703425411       -0.2422363228
 C          3.2020805447       -1.2822446318        1.0493546111
 C          3.8573207312       -2.5109940639        1.6187080298
 C          5.3884336460       -2.5115487444        1.5112696239
 C          5.9417935745       -2.7288638694        0.1024490302
 H          7.0111995631       -2.9230962288        0.2048707257
 H          5.4884951878       -3.6211852035       -0.3304634593
 C          5.7449295035       -1.5376081825       -0.8454239715
 H          5.5124915157       -0.6431851651       -0.2630309877
 H          6.6764600003       -1.3391937491       -1.3799980921
 C          4.6537455298       -1.7387958724       -1.8970284904
 H          4.9370643535       -2.5514523716       -2.5695969114
 H          4.5741553980       -0.8234552490       -2.4889948509
 C          3.2679351568       -2.0482613691       -1.3154887327
 H          2.5283830935       -1.9621371652       -2.1158632763
 H          3.2392285590       -3.0666439883       -0.9279143960
 H          5.7658925497       -1.5671460276        1.9097772553
 H          5.7585642771       -3.3150770536        2.1520363654
 H          3.5854776352       -2.5441842381        2.6760214810
 H          3.4545008378       -3.3988700829        1.1300265532
 O          2.9201770671       -0.3745839007        2.0205313306
 C          2.3213000517        0.8334717961        1.7125762578
 O          2.1510499512        1.5811346300        2.6963825759
 H         -0.2053337999        0.9543224078       -1.5361029823
 C         -0.8143635299        1.4103961448       -0.7692642956
 C         -0.2180296280        2.2283960951        0.1803216014
 C         -1.0176129383        2.7862288093        1.1706930142
 C         -2.3767166720        2.5268928435        1.2099293302
 C         -2.9617349228        1.6913803579        0.2744687871
 C         -2.1682546161        1.1258378582       -0.7140263165
 N         -2.7507818873        0.2123433085       -1.6319262810
 S         -2.9255772338       -1.3256452313       -0.9563312774
 O         -1.8293958616       -1.6393939016       -0.0646070064
 O         -3.1209314279       -2.2245834859       -2.0731373387
 C         -4.4382960456       -1.1887227748       -0.0298118660
 C         -5.6287732540       -1.0918825461       -0.7238733824
 C         -6.8095249368       -0.9629356927       -0.0101043424
 C         -6.7793885559       -0.9326967603        1.3763563257
 C         -5.5759616427       -1.0335600283        2.0578930883
 C         -4.3911960718       -1.1627470528        1.3500400671
 H         -3.4309366763       -1.2396220229        1.8349851886
 H         -5.5535365079       -1.0096415347        3.1355634844
 H         -7.6992434567       -0.8304860147        1.9301498000
 H         -7.7475888271       -0.8856060193       -0.5356204023
 H         -5.6042699195       -1.1258747740       -1.8002345766
 H         -2.1922447002        0.1148015424       -2.4705310589
 H         -4.0171044155        1.4746422832        0.3043888301
 H         -2.9846076869        2.9698530632        1.9837567688
 H         -0.5607112915        3.4087348126        1.9261878029
 C          1.2764338825        2.4416472838        0.1666361189
 H          1.5359587566        3.0586794745        1.0373187052
 C          1.7278399257        3.1658503035       -1.0855173743
 C          1.5538142170        4.6515151164       -1.1662868472
 C          2.9246833180        4.0640070110       -1.0191309909
 H          3.5946474681        4.0906920406       -1.8653231886
 H          3.4229362518        4.1622972284       -0.0654479592
 H          1.2800412370        5.0861667851       -2.1152533749
 H          1.1241916826        5.1520701227       -0.3118556742
 H          1.5905130390        2.5908776272       -1.9914527056
 O          1.8693848325        0.3148124430       -1.8522825970
