  62
        -98.94517175
 C          2.1066679746        1.4694432011       -0.0252906907
 C          1.8862104946        0.4515086425       -0.9845206365
 C          2.8031169499       -0.6970022833       -0.9218342808
 C          3.7554579840       -0.7354978313        0.0272560623
 C          4.7015090691       -1.8787077022        0.2497523959
 C          4.1201170771       -2.8942732960        1.2438973638
 C          2.6884645062       -3.3258107437        0.9242995597
 H          2.4013779843       -4.0684282027        1.6716711922
 H          2.0206054353       -2.4699162627        1.0465809454
 C          2.5040636839       -3.9135744109       -0.4815512263
 H          3.4714867428       -4.2092943945       -0.8890572130
 H          1.8962692106       -4.8176364883       -0.4089430673
 C          1.8017134015       -2.9796955719       -1.4684778585
 H          0.8786495466       -2.6012766489       -1.0232846239
 H          1.5289007592       -3.5619758260       -2.3524610574
 C          2.6247712602       -1.7790543645       -1.9497659558
 H          3.5940448499       -2.1182727697       -2.3210809868
 H          2.0817466669       -1.3170661758       -2.7794073765
 H          4.7713678676       -3.7701793000        1.2601929861
 H          4.1290902109       -2.4463107418        2.2402646660
 H          4.9090273624       -2.3636587552       -0.7021483044
 H          5.6334606320       -1.4803166308        0.6543649652
 O          3.9311423430        0.2560949244        0.9373500747
 C          3.1179807437        1.3746961772        0.9353935935
 O          3.3905323505        2.2070396950        1.8234590576
 H         -0.9875099473        1.8907781116       -1.3290654403
 C         -1.1498864827        1.9332708595       -0.2639083865
 C         -0.1206626077        2.3405917676        0.5710426886
 C         -0.3396122411        2.3474634889        1.9454515498
 C         -1.5657150412        1.9765986108        2.4657698592
 C         -2.5950210045        1.5811953565        1.6290800153
 C         -2.3776081392        1.5440528365        0.2578468474
 N         -3.4069762445        1.1402193480       -0.6101997975
 S         -4.3179025590       -0.2214211317       -0.2819903270
 O         -5.0492212382       -0.4816941446       -1.5004060859
 O         -5.1110290397        0.0103458467        0.8995329622
 C         -3.1558983780       -1.5399521449        0.0193940611
 C         -2.6906757919       -1.7627642485        1.2998135222
 C         -1.7665519047       -2.7741914893        1.5092173526
 C         -1.3319925695       -3.5459403346        0.4433094874
 C         -1.8128030867       -3.3128441477       -0.8364360920
 C         -2.7275468575       -2.2959643698       -1.0538184581
 H         -3.1292023182       -2.0859986228       -2.0320330725
 H         -1.4748592060       -3.9165725449       -1.6633507463
 H         -0.6144170394       -4.3335918976        0.6106779737
 H         -1.3901889956       -2.9571681219        2.5029722291
 H         -3.0624396984       -1.1557622939        2.1082657336
 H         -3.1346186085        1.1500774224       -1.5824834898
 H         -3.5607511192        1.3023575592        2.0183550833
 H         -1.7253311791        1.9996915124        3.5332899880
 H          0.4678768488        2.6425036925        2.6010437561
 C          1.2393081484        2.7180162732        0.0352360995
 H          1.7179001425        3.3759697005        0.7725415530
 C          1.1835695799        3.4449521804       -1.2927627530
 C          0.6678067169        4.8510871106       -1.3305759838
 C          2.1264511863        4.5813479795       -1.5435977291
 H          2.5347808240        4.7024461723       -2.5358440223
 H          2.8156694299        4.8439247864       -0.7541146572
 H          0.3658599622        5.2958126662       -0.3942373279
 H          0.0726294081        5.1609452067       -2.1759334521
 H          0.9577215351        2.8006307181       -2.1324063868
 O          0.9808324811        0.4854670586       -1.8593576302
