  62
        -98.93668437
 C          2.6029025213        0.0353883931        0.5466942878
 C          2.0514042218       -0.4341122233       -0.6691958761
 C          1.5699245110       -1.8314311500       -0.6913104943
 C          1.7203732618       -2.5906487895        0.4085287762
 C          1.3082036593       -4.0224957527        0.6341181645
 C         -0.1987428192       -4.1773485255        0.8781699675
 C         -1.0860954084       -3.4368002388       -0.1181902249
 H         -2.1249657082       -3.5890541600        0.1892361960
 H         -0.8937513476       -2.3638347962       -0.0496794845
 C         -0.9567155986       -3.8908946705       -1.5708038301
 H         -1.7380336726       -3.3738311327       -2.1331763609
 H         -1.1530985573       -4.9639822675       -1.6304396226
 C          0.3814088822       -3.5949942838       -2.2550150993
 H          0.2199460769       -3.6826244137       -3.3333012240
 H          1.1362331790       -4.3332247834       -1.9951163008
 C          0.9176414729       -2.1896178543       -2.0035899969
 H          1.6572165677       -1.9470600105       -2.7760033010
 H          0.1073049873       -1.4623519787       -2.1376941079
 H         -0.4244371320       -3.7893167559        1.8747767939
 H         -0.4406487248       -5.2421404369        0.8641488611
 H          1.8408682852       -4.3605543907        1.5262557239
 H          1.6270107393       -4.6423781932       -0.1985937580
 O          2.2974435766       -2.1067589097        1.5485893603
 C          2.6911231825       -0.7894674682        1.6675586359
 O          3.1100016823       -0.4769369000        2.8023306102
 O          1.9531792695        0.2726614759       -1.7065057429
 C          2.9748379920        1.4966263441        0.7418372226
 C          1.8708101714        2.3585991235        0.1755799429
 C          2.0774020698        3.4546826800       -0.6506367558
 C          0.9982457999        4.1596530854       -1.1567531526
 C         -0.2990864056        3.7728917538       -0.8770277381
 C         -0.5158215972        2.6814198510       -0.0433657135
 C          0.5651626346        2.0131185322        0.5027408162
 H          0.3872269528        1.1679901874        1.1523165658
 N         -1.8203905317        2.2392090334        0.2641758187
 S         -2.0751027148        0.5661169823        0.1753480792
 O         -1.5455818280       -0.0553718674        1.3638594731
 O         -1.6032504716        0.0566656209       -1.0908788252
 C         -3.8570780397        0.5138338693        0.2265165836
 C         -4.5685813415        0.2475332500       -0.9274227448
 C         -5.9537985764        0.2333667931       -0.8730084248
 C         -6.5996908208        0.4880901993        0.3271690508
 C         -5.8715662584        0.7535448576        1.4777837575
 C         -4.4867827097        0.7669356390        1.4303949664
 H         -3.8784800177        0.9581280571        2.2990030266
 H         -6.3770522794        0.9486078270        2.4097568965
 H         -7.6773606290        0.4769030115        0.3674428093
 H         -6.5217533591        0.0238851713       -1.7650581999
 H         -4.0216408160        0.0505313593       -1.8354916954
 H         -2.5173954714        2.7163777552       -0.2941169849
 H         -1.1371464977        4.3024574459       -1.3049218383
 H          1.1717504080        5.0076974742       -1.8019975654
 H          3.0795283111        3.7427347124       -0.9228532032
 H          2.9827051149        1.6380750071        1.8364761662
 C          4.3622944347        1.8768699012        0.2463257537
 C          5.4240821180        0.8382868019        0.0442962120
 C          4.8308174315        1.5424747718       -1.1368191280
 H          5.4405669002        2.2645389225       -1.6601064884
 H          4.1472170924        1.0003583927       -1.7705859442
 H          6.4357613105        1.0779949537        0.3359839697
 H          5.1526315275       -0.1936539117        0.2152882340
 H          4.6962345210        2.8238382657        0.6592582012
