  62
        -98.94591929
 C         -1.2952331921       -1.4208752211        0.6147746840
 C         -2.3720951915       -1.3103096258       -0.2995811714
 C         -3.3725809198       -0.2752528426        0.0079899909
 C         -3.2209621059        0.4941888152        1.1000678337
 C         -4.1423228179        1.6090604782        1.5022158360
 C         -3.7072988971        2.9539727777        0.9025912009
 C         -3.4016164035        2.8960437129       -0.5939285625
 H         -3.1306421277        3.9061653459       -0.9081378050
 H         -2.5301788175        2.2585193478       -0.7587224122
 C         -4.5649260406        2.3914067378       -1.4587082975
 H         -5.5001862230        2.4630076162       -0.9021255369
 H         -4.6584157595        3.0388521904       -2.3330408185
 C         -4.3934988918        0.9631436473       -1.9784759333
 H         -3.4153876884        0.8601593233       -2.4547879523
 H         -5.1518752737        0.7877094643       -2.7461142328
 C         -4.5391163706       -0.1478506286       -0.9312027123
 H         -5.4677924099       -0.0089050719       -0.3737870299
 H         -4.5984663268       -1.1009496424       -1.4646006457
 H         -4.4995025562        3.6822940221        1.0856068162
 H         -2.8110800629        3.2954468018        1.4258958927
 H         -5.1528050588        1.3674102588        1.1775675550
 H         -4.1312396788        1.6860648028        2.5909947670
 O         -2.1744337400        0.3599056124        1.9553960418
 C         -1.1971203753       -0.5966120869        1.7388842500
 O         -0.3044094973       -0.6160551067        2.6112246966
 H          2.2220154045       -1.2726155295        0.8381349109
 C          1.9871974990       -1.3569664971       -0.2124529071
 C          0.7952550761       -1.9466957254       -0.6113789526
 C          0.5210876261       -2.0469442306       -1.9715208431
 C          1.4250158000       -1.5699916680       -2.9029579469
 C          2.6077985901       -0.9741279258       -2.5017665362
 C          2.8887408712       -0.8633721522       -1.1453543486
 N          4.0831809339       -0.2669901182       -0.7071280889
 S          4.0423823967        0.8089323106        0.5744742105
 O          5.2681294766        1.5667348945        0.4411223552
 O          3.8725824216        0.0971957200        1.8143605706
 C          2.6435978290        1.8601857061        0.2333802452
 C          1.4523044697        1.6800548568        0.9042581968
 C          0.3702624981        2.4783886231        0.5669266907
 C          0.4937661634        3.4345710535       -0.4278354878
 C          1.7010805315        3.6070951155       -1.0886569980
 C          2.7855055232        2.8119229219       -0.7588516150
 H          3.7439921482        2.9239008392       -1.2393810913
 H          1.7966158989        4.3557428977       -1.8584170471
 H         -0.3548634466        4.0486566197       -0.6851998311
 H         -0.5634123693        2.3360894736        1.0883518139
 H          1.3719810070        0.9295797769        1.6753801797
 H          4.6687241715        0.0830813616       -1.4519314661
 H          3.3106226899       -0.5998756152       -3.2304207562
 H          1.2023646599       -1.6560355932       -3.9556425973
 H         -0.4141056749       -2.4781976119       -2.2904776493
 C         -0.1723861714       -2.4335789780        0.4413115783
 H          0.3638740657       -2.4472201555        1.4001430550
 C         -0.6759188821       -3.8349870717        0.1586122449
 C          0.2487670916       -4.9924770536        0.3796466764
 C         -0.9100291587       -4.7710005763        1.3040183178
 H         -1.7493979508       -5.4482662812        1.2529856378
 H         -0.7055704889       -4.4050810190        2.3001936702
 H          1.2400713547       -4.7757949886        0.7495577035
 H          0.2074776713       -5.8242954273       -0.3065451059
 H         -1.3658673132       -3.8911427926       -0.6723069928
 O         -2.5178032956       -2.0324581482       -1.3192643416
