  62
        -98.93940588
 C         -1.9581266920       -0.2754587705       -0.4847720367
 C         -1.2382569805       -1.2722946427       -1.1865655383
 C         -0.9129656267       -2.5065163565       -0.4506684006
 C         -1.2891286066       -2.6095291235        0.8365168618
 C         -1.0512764192       -3.7850084721        1.7441755745
 C          0.3741276324       -3.8054194163        2.3377189034
 C          1.4534487699       -3.1784521614        1.4544764731
 H          2.3477603541       -3.0350438139        2.0682730560
 H          1.1245031648       -2.1786324862        1.1631381147
 C          1.8595897768       -3.9964414460        0.2265798003
 H          2.4743457055       -4.8356800872        0.5627056932
 H          2.4838492735       -3.3627621951       -0.4086257285
 C          0.7200889650       -4.5756780300       -0.6092572620
 H          0.1533069301       -5.2827173698       -0.0087817002
 H          1.1730422488       -5.1483506523       -1.4241743108
 C         -0.2113708068       -3.5598743442       -1.2704806598
 H         -0.9864177277       -4.1128799943       -1.8159381298
 H          0.3480211671       -3.0026416635       -2.0294058392
 H          0.6452147130       -4.8348239144        2.5773453675
 H          0.3564619504       -3.2344048343        3.2685182952
 H         -1.2660096595       -4.7001079851        1.1969121063
 H         -1.7696598505       -3.7080640974        2.5627730635
 O         -1.9237863408       -1.6046581164        1.4953644858
 C         -2.2412862133       -0.4055003395        0.8763593488
 O         -2.7767329229        0.4246672903        1.6344559602
 O         -0.8726912575       -1.1361751009       -2.3861877411
 C         -2.2584170857        1.0210377990       -1.2209195762
 C         -1.6882113399        2.1615357233       -0.4176873656
 C         -2.4251598227        3.2232380011        0.0863275272
 C         -1.8126053887        4.1748110385        0.8847177935
 C         -0.4745006313        4.0722125390        1.2178991917
 C          0.2725729872        3.0141832940        0.7108010485
 C         -0.3298943464        2.0988557639       -0.1325050360
 H          0.2510425956        1.2820741799       -0.5331229427
 N          1.6298350701        2.8529167344        1.0274401753
 S          2.2570114761        1.3060395085        1.2034201517
 O          1.2608950981        0.3565359693        1.6382357993
 O          3.3964126573        1.4839090883        2.0806148719
 C          2.8580443996        0.9060260942       -0.4243614692
 C          3.8318655410        1.7201738540       -0.9695907538
 C          4.3169798348        1.4305666654       -2.2343102023
 C          3.8228763016        0.3373630702       -2.9306528114
 C          2.8494068966       -0.4732235342       -2.3682937337
 C          2.3626107880       -0.1888564448       -1.1023681616
 H          1.5965945865       -0.7937211776       -0.6415822868
 H          2.4527020939       -1.3178980472       -2.9089976835
 H          4.1968260714        0.1137647070       -3.9172973867
 H          5.0753377801        2.0575152959       -2.6747672738
 H          4.1922252205        2.5555198387       -0.3929549358
 H          1.9798202708        3.4830496787        1.7342852717
 H         -0.0122057062        4.7945111314        1.8735898054
 H         -2.3945976065        4.9947601250        1.2779680143
 H         -3.4814455433        3.2895234704       -0.1167885670
 H         -1.6739004959        0.9386897273       -2.1530892597
 C         -3.7062138093        1.2152014552       -1.6388008735
 C         -4.5977914709        0.0366736048       -1.8900275746
 C         -4.8640818548        0.9434759344       -0.7278390876
 H         -5.7188578734        1.6022048043       -0.7810364179
 H         -4.6473393932        0.5889020237        0.2669217220
 H         -5.2686550921        0.0681718747       -2.7353691903
 H         -4.1937691782       -0.9447739651       -1.6866097730
 H         -3.8162962498        2.0524173009       -2.3216049707
