  62
        -98.94734786
 C         -1.7994273229       -1.1275912125       -0.4510135954
 C         -1.2809437955       -1.8449340114        0.6572233139
 C         -0.1845989620       -2.7838916870        0.3576420399
 C          0.2774916710       -2.8934481164       -0.8998266783
 C          1.4265216117       -3.7581615862       -1.3281039116
 C          2.7590759738       -2.9996596015       -1.2635441187
 C          3.0158826844       -2.2978452346        0.0703399277
 H          4.0128257493       -1.8536106943        0.0185663609
 H          2.3117669975       -1.4724778382        0.1955897552
 C          2.9257603515       -3.2095083311        1.3014752400
 H          3.0176903167       -4.2550611968        1.0027740990
 H          3.7641625904       -2.9841149517        1.9639714423
 C          1.6493221840       -3.0207801785        2.1240203059
 H          1.7887164196       -3.5158899745        3.0894591928
 H          1.5004711828       -1.9557417366        2.3209841659
 C          0.3653859302       -3.5863691690        1.5027423261
 H          0.5292451603       -4.6234656855        1.1993819809
 H         -0.4082775397       -3.5727004910        2.2763931380
 H          3.5652075258       -3.7091406960       -1.4598918291
 H          2.7696484267       -2.2443445270       -2.0527118194
 H          1.4677053632       -4.6392106039       -0.6905083281
 H          1.2502419251       -4.0740863802       -2.3579255809
 O         -0.2409872595       -2.1886502935       -1.9376427400
 C         -1.2794250576       -1.2945736897       -1.7383313996
 O         -1.6532105974       -0.7125999571       -2.7763555346
 O         -1.6948499462       -1.7322188181        1.8406790060
 C         -2.8955397603       -0.0778942401       -0.3523617766
 C         -2.2951288762        1.2930502954       -0.1351104696
 C         -2.7686029876        2.3968044047       -0.8350534018
 C         -2.1958987490        3.6428411199       -0.6559875980
 C         -1.1180563707        3.8044704239        0.1960111431
 C         -0.6349686797        2.7072322197        0.8989754663
 C         -1.2448189314        1.4692332533        0.7535694747
 H         -0.8740633484        0.6345284863        1.3280904447
 N          0.4837038949        2.8259672298        1.7449622364
 S          1.7529106749        1.7529211031        1.5283189849
 O          1.3774623309        0.4378676905        1.9720126274
 O          2.8663208943        2.3680981719        2.2177294891
 C          2.0537299447        1.7611917146       -0.2290406306
 C          2.9410776529        2.6828615076       -0.7497024690
 C          3.1262087835        2.7339723764       -2.1216910050
 C          2.4141671916        1.8771595184       -2.9482005054
 C          1.5255008040        0.9585737027       -2.4113662793
 C          1.3453171157        0.8973193331       -1.0388851829
 H          0.6603471356        0.1914231011       -0.5955881217
 H          0.9560200725        0.2949803670       -3.0444023305
 H          2.5502306521        1.9224180219       -4.0172052399
 H          3.8194304572        3.4435955217       -2.5437799548
 H          3.4761149491        3.3270513412       -0.0708087122
 H          0.8417999502        3.7679813842        1.8198151362
 H         -0.6504096922        4.7698368762        0.3157981637
 H         -2.5758887926        4.4923628352       -1.2021827585
 H         -3.5810281474        2.2699728522       -1.5344334871
 H         -3.3893335591       -0.0664804197       -1.3346290978
 C         -3.9464140531       -0.3609478290        0.7024209880
 C         -5.3315303801        0.1794938743        0.5185864407
 C         -5.0762350371       -1.2911663350        0.3838789935
 H         -5.4275906168       -1.9550686905        1.1591107409
 H         -5.1013408779       -1.7249730818       -0.6054303544
 H         -5.8637999662        0.5313918952        1.3888097796
 H         -5.5400010538        0.7389967649       -0.3805160906
 H         -3.5468762045       -0.3923970841        1.7074495659
