  62
        -98.93623720
 C          1.9429782952        1.0500243083        0.0396007003
 C          2.2710917105        0.0863877584        1.0201737978
 C          2.6292800408       -1.2496547236        0.5239673563
 C          2.5887128941       -1.4876960534       -0.7998009156
 C          2.9892300948       -2.7735246682       -1.4661193953
 C          4.5265123237       -2.8814894149       -1.5270307008
 C          5.1123061408       -4.0219436384       -0.6944096344
 H          4.9383521608       -4.9663197758       -1.2141432966
 H          6.1919773089       -3.8672823158       -0.6421494120
 C          4.5595526293       -4.1615901174        0.7271444690
 H          3.5932026543       -4.6672301313        0.6979041648
 H          5.2401851207       -4.8205567563        1.2703085179
 C          4.4038242833       -2.8559866534        1.5174080984
 H          5.0804142060       -2.0910339905        1.1359673562
 H          4.6920424938       -3.0487787834        2.5527886703
 C          2.9699390745       -2.2938943676        1.5512782356
 H          2.2501849763       -3.1152963335        1.4850213867
 H          2.8101639066       -1.7989640805        2.5142154749
 H          4.9482088735       -1.9311839374       -1.1933471328
 H          4.8400727916       -3.0181233771       -2.5629602768
 H          2.5669842876       -2.7613592518       -2.4711105587
 H          2.5644964272       -3.6140677537       -0.9216031229
 O          2.2474371834       -0.5407662343       -1.7118361759
 C          1.9063885686        0.7445159410       -1.3202312929
 O          1.6037861552        1.5052201432       -2.2595021698
 O          2.2649329249        0.3344225760        2.2586673233
 C          1.5440036367        2.4446755654        0.4796863379
 C          0.1382438354        2.7695824172        0.0336760230
 C         -0.2560065055        4.0510238179       -0.3312226749
 C         -1.5644685591        4.3004761584       -0.7077738548
 C         -2.5025472397        3.2859677124       -0.7300745538
 C         -2.1170202590        1.9977706200       -0.3717685554
 C         -0.8112699280        1.7559398278        0.0204335097
 H         -0.5272821874        0.7543587014        0.3106244764
 N         -3.0358128787        0.9382090607       -0.4398083504
 S         -2.7765218732       -0.4857321393        0.4147719951
 O         -2.5652000170       -0.2041592425        1.8182713317
 O         -1.7522791592       -1.2546720062       -0.2485541468
 C         -4.3619873537       -1.2675024273        0.1815988666
 C         -4.6182995732       -1.8910735026       -1.0250295401
 C         -5.8586815270       -2.4748363307       -1.2276330896
 C         -6.8174358973       -2.4249190891       -0.2263404896
 C         -6.5453749256       -1.7972351514        0.9798327497
 C         -5.3068724835       -1.2104694083        1.1884888660
 H         -5.0465609491       -0.7185053022        2.1118250220
 H         -7.2912896319       -1.7626503684        1.7573422557
 H         -7.7817009886       -2.8805900038       -0.3865973599
 H         -6.0722081592       -2.9658843221       -2.1633137369
 H         -3.8386171168       -1.9108799731       -1.7688673589
 H         -4.0007175421        1.2362275413       -0.4143793186
 H         -3.5201548491        3.4806704707       -1.0314904022
 H         -1.8572945074        5.3008052476       -0.9884287618
 H          0.4627251344        4.8540489963       -0.3223873763
 H          1.5511993726        2.4173573845        1.5808442362
 C          2.5669888695        3.4600108081        0.0099697420
 C          2.8853661717        4.6648459337        0.8427496910
 C          3.8783239769        3.5487814810        0.7298916514
 H          4.7752713347        3.7081878430        0.1505789607
 H          4.0177916825        2.8984033564        1.5813376901
 H          3.1044380287        5.5949820585        0.3403123299
 H          2.3602146604        4.7789354386        1.7791213323
 H          2.5799445864        3.5616667018       -1.0694842071
