  62
        -98.93238961
 C         -2.3304044592       -0.8542824508        0.8372965005
 C         -3.3352613994       -0.7920637166       -0.1549825688
 C         -4.3221086595        0.3037135988       -0.0364765008
 C         -4.1931207467        1.1935329999        0.9644498931
 C         -5.0467344367        2.3966467760        1.2685257951
 C         -4.7859665730        3.5717635359        0.3140748238
 C         -4.7076764028        3.1927022006       -1.1620457567
 H         -4.4340883066        4.0912946830       -1.7213814259
 H         -3.9046872337        2.4670574299       -1.3039400439
 C         -6.0005274365        2.6444137839       -1.7614892286
 H         -6.7984320123        3.3779122828       -1.6263439741
 H         -5.8347773921        2.5289616996       -2.8356732567
 C         -6.4752180697        1.2976640577       -1.2100777034
 H         -7.2262971810        0.9089157109       -1.9038926907
 H         -6.9739685793        1.4155568616       -0.2517578147
 C         -5.3854487205        0.2356637910       -1.1063788772
 H         -5.8631962404       -0.7432250829       -0.9792375851
 H         -4.8526564524        0.1714048495       -2.0620474270
 H         -5.5723214960        4.3143160801        0.4604507699
 H         -3.8332889996        4.0292466015        0.5919506785
 H         -6.0970848228        2.1210844243        1.2620396900
 H         -4.7917851787        2.7105124708        2.2832479402
 O         -3.1744287337        1.1218705706        1.8699658183
 C         -2.2323084543        0.1169456082        1.8354919889
 O         -1.3681627812        0.1888296450        2.7340709793
 O         -3.4336371931       -1.6092444745       -1.1073962200
 C         -1.2717379818       -1.9464219499        0.8530057019
 C         -0.2449082624       -1.6476453074       -0.2133119527
 C         -0.3314116241       -2.1481564240       -1.5062699257
 C          0.6278822167       -1.8167046540       -2.4475259438
 C          1.6866499493       -0.9881045761       -2.1230867757
 C          1.7809239747       -0.4806719444       -0.8333288919
 C          0.8199488490       -0.8158941764        0.1101617420
 H          0.8827912268       -0.4133654902        1.1133631689
 N          2.8475763289        0.3751173884       -0.4969151286
 S          4.3862171599       -0.1039947085       -1.0093052875
 O          4.5609959245        0.3203293718       -2.3759983150
 O          4.5746830885       -1.5154122242       -0.7590472314
 C          5.4331659164        0.8623896686        0.0601126217
 C          5.9727647560        0.2744246693        1.1882534805
 C          6.7741406777        1.0370513020        2.0232743674
 C          7.0180672857        2.3677830135        1.7188783958
 C          6.4684817178        2.9439913653        0.5830732741
 C          5.6673629335        2.1870214186       -0.2568679819
 H          5.2277950827        2.5891964505       -1.1546561769
 H          6.6629249049        3.9782657299        0.3492463284
 H          7.6430999377        2.9586152296        2.3696789118
 H          7.2048876722        0.5911427819        2.9053314784
 H          5.7637998672       -0.7658822879        1.3802733832
 H          2.8481508303        0.6067168960        0.4873617852
 H          2.4443847220       -0.7332047519       -2.8466634132
 H          0.5508820918       -2.2105022656       -3.4500377227
 H         -1.1619878282       -2.7784104712       -1.7783083232
 H         -0.7718206920       -1.8555129033        1.8270584858
 C         -1.8637180596       -3.3359862886        0.7471040170
 C         -1.0107242667       -4.5155161580        1.1014591154
 C         -2.1391000088       -4.1093043779        1.9999975233
 H         -3.0198197651       -4.7327202809        2.0366293873
 H         -1.8982275577       -3.6393218028        2.9426245486
 H         -1.1139084246       -5.4197337875        0.5215748019
 H         -0.0015315417       -4.3190379129        1.4316492548
 H         -2.5688995774       -3.4462694103       -0.0657716133
