  62
        -98.93964009
 C         -2.6400819368       -1.2127684975        0.2747593724
 C         -2.5130154952       -0.1803715744       -0.6880650129
 C         -3.6943600019        0.6786616233       -0.8587171393
 C         -4.8074634097        0.4479506647       -0.1411698185
 C         -6.0963044816        1.2192070566       -0.2285654529
 C         -6.1158855909        2.4983712929        0.6194310294
 C         -5.2554945064        3.6452162204        0.0873014924
 H         -5.5045842010        3.8298966476       -0.9581286933
 H         -5.5306531240        4.5392775863        0.6503608775
 C         -3.7432123654        3.4202028521        0.2265765532
 H         -3.5581226389        2.6207400611        0.9478812113
 H         -3.2757220422        4.3233953036        0.6250050868
 C         -3.0289504548        3.0804598721       -1.0817343249
 H         -1.9741186227        2.8993822555       -0.8593094046
 H         -3.0893475282        3.9314659561       -1.7637728250
 C         -3.5801467788        1.8408486995       -1.7982100441
 H         -4.5467892802        2.0640892962       -2.2492142543
 H         -2.8791108443        1.5623800310       -2.5888487492
 H         -7.1520279854        2.8413037772        0.6670545227
 H         -5.8019195097        2.2482997237        1.6355399775
 H         -6.3051277903        1.4676011652       -1.2695221015
 H         -6.8822726076        0.5534939986        0.1347322834
 O         -4.8929423876       -0.5604595457        0.7673463014
 C         -3.8091124483       -1.3847200536        1.0214815503
 O         -4.0084631441       -2.2238708905        1.9228620801
 O         -1.4838224632        0.0245545817       -1.3802287867
 C         -1.4908654284       -2.1516674075        0.6027564802
 C         -0.2164892215       -1.3610500973        0.7669601185
 C         -0.0951390360       -0.5092323736        1.8612809051
 C          1.0478233134        0.2441303616        2.0480984724
 C          2.0942318947        0.1675067216        1.1456164988
 C          1.9834058065       -0.6777410073        0.0506898273
 C          0.8372713512       -1.4420460578       -0.1285008119
 H          0.7564721020       -2.0789913793       -0.9957378729
 N          3.0322146958       -0.7418098351       -0.8809615354
 S          4.5973647871       -0.9590176647       -0.3255745121
 O          5.3138550153       -1.5529442766       -1.4335313719
 O          4.6195677026       -1.6935004830        0.9186640859
 C          5.2029316966        0.6955554738       -0.0676305209
 C          5.7536092158        1.0438387723        1.1500709916
 C          6.2351203026        2.3321055016        1.3243074428
 C          6.1586104097        3.2439638506        0.2828100037
 C          5.6040145393        2.8778866249       -0.9346952148
 C          5.1223224820        1.5912941205       -1.1157925482
 H          4.6866399474        1.2681792407       -2.0465555775
 H          5.5450924329        3.5901940621       -1.7419313266
 H          6.5331181779        4.2460424066        0.4205866314
 H          6.6665119356        2.6186148152        2.2700260834
 H          5.7868615078        0.3032602869        1.9333266051
 H          2.8376204228       -1.3280119184       -1.6792161154
 H          2.9868441560        0.7564187673        1.2807193803
 H          1.1247328140        0.9012463380        2.9012183286
 H         -0.9165700098       -0.4422954824        2.5623917467
 H         -1.7473311728       -2.5804831771        1.5855172473
 C         -1.3494793690       -3.3268273172       -0.3532791132
 C         -2.5596964718       -3.9581298751       -0.9724512697
 C         -1.5859024512       -3.2075453109       -1.8277873177
 H         -0.9507863084       -3.7735779887       -2.4942997041
 H         -1.8739196250       -2.2429695347       -2.2142704244
 H         -2.5945488593       -5.0343357035       -1.0510018956
 H         -3.5182944844       -3.5042129046       -0.7668816633
 H         -0.5610705484       -4.0054730777       -0.0398104909
