  62
        -98.94967521
 C         -1.4992301334       -1.0660934184        0.0386043981
 C         -2.5158549431       -0.6381199121        0.9225537366
 C         -3.0427087911        0.7121110298        0.6896025415
 C         -2.5173149083        1.4621293094       -0.2967776833
 C         -2.9848313256        2.8396221845       -0.6662712533
 C         -4.0775426266        2.7890078173       -1.7434490423
 C         -5.2067997862        1.8073543125       -1.4303071496
 H         -5.9334209817        1.8776166362       -2.2424805189
 H         -4.8074159804        0.7907449344       -1.4414299173
 C         -5.9120536260        2.0585862510       -0.0903045669
 H         -6.9908999784        1.9862072757       -0.2429133719
 H         -5.7005625513        3.0709880443        0.2556483410
 C         -5.5509900785        1.0619375360        1.0126649196
 H         -5.6719976157        0.0421038058        0.6389447358
 H         -6.2575807397        1.1950842688        1.8361863595
 C         -4.1389283775        1.1950012723        1.5975283382
 H         -3.9596655299        2.2289341171        1.9008818664
 H         -4.0871432487        0.5638681070        2.4899504809
 H         -4.4881149113        3.7930195844       -1.8650398285
 H         -3.6173550151        2.4925111427       -2.6887310467
 H         -3.3589406282        3.3401025171        0.2249418920
 H         -2.1285914742        3.3982480297       -1.0487459795
 O         -1.5241505266        1.0268451010       -1.1109743206
 C         -0.9858615403       -0.2392687060       -0.9597136286
 O         -0.0760454241       -0.5127655457       -1.7670660237
 H          0.4336532366       -0.5840472867        1.6072878693
 C          1.1064398484       -1.3029082983        1.1622175331
 C          0.5997485367       -2.3473486415        0.3993607889
 C          1.4943471827       -3.2583988387       -0.1493639922
 C          2.8573210122       -3.1085142888        0.0409082739
 C          3.3581483083       -2.0385168333        0.7595800896
 C          2.4707782012       -1.1275523165        1.3197853572
 N          2.9238688401        0.0016654744        2.0373959549
 S          2.6168681372        1.4897412904        1.3239841331
 O          3.2529402485        2.4600690892        2.1902750373
 O          1.2017121327        1.6531710408        1.1147627038
 C          3.5023996598        1.4120311962       -0.2230656940
 C          2.9372983738        0.7605380640       -1.3008658527
 C          3.6817596104        0.6353574539       -2.4647702781
 C          4.9649316863        1.1550458687       -2.5306986959
 C          5.5165305972        1.8072928211       -1.4378511858
 C          4.7822220018        1.9324976687       -0.2702899799
 H          5.1665170676        2.4330044430        0.6039848221
 H          6.5136218757        2.2138726109       -1.4911153974
 H          5.5365836276        1.0518553010       -3.4395265644
 H          3.2446080447        0.1275101291       -3.3095175915
 H          1.9339372829        0.3678234533       -1.2346943195
 H          3.9043398011       -0.0438517008        2.2822757405
 H          4.4220287022       -1.9047608715        0.8858392983
 H          3.5388383753       -3.8241933810       -0.3926313561
 H          1.1230730504       -4.0851155445       -0.7327202395
 C         -0.8947122391       -2.4462215249        0.2158547434
 H         -1.3329251266       -2.8422393060        1.1447742110
 C         -1.2971182547       -3.3466003189       -0.9352189868
 C         -1.4989186767       -4.8161028367       -0.7191831273
 C         -2.6799979520       -3.9235530890       -0.9494893653
 H         -3.2033722625       -3.9876389111       -1.8916807019
 H         -3.3195267022       -3.6910135540       -0.1103406543
 H         -1.3447570043       -5.2015181848        0.2773128137
 H         -1.2136902682       -5.4969394175       -1.5069955628
 H         -0.8823071328       -3.0176957652       -1.8816988681
 O         -2.9581340965       -1.3517636045        1.8651863476
