  62
        -98.94547363
 C          2.3703442296        1.0935339408        0.1478036091
 C          2.0258529895        0.1821346506       -0.8798910507
 C          2.7251030199       -1.1090407692       -0.8417345107
 C          3.6259967003       -1.3572217288        0.1260922890
 C          4.4222095407       -2.6237810286        0.2898869189
 C          3.6744447013       -3.7385298287        1.0350026492
 C          2.5474383612       -4.4086814991        0.2474787197
 H          2.9270120410       -4.7344521891       -0.7213670904
 H          2.2576714216       -5.3037941092        0.8015733599
 C          1.3050160409       -3.5292162295        0.0463138500
 H          1.3329311609       -2.6965650094        0.7539848399
 H          0.4069217511       -4.1097116798        0.2721863903
 C          1.1462446603       -2.9724403097       -1.3687027700
 H          0.9802339603       -3.7947635199       -2.0678834699
 H          0.2659138701       -2.3258954900       -1.3854599298
 C          2.3403517999       -2.1427284394       -1.8566517305
 H          3.1858871000       -2.7913201092       -2.0831196707
 H          2.0437981494       -1.6183197596       -2.7680540105
 H          4.4085812716       -4.5035310685        1.2980645191
 H          3.2749601814       -3.3296224588        1.9663853893
 H          5.3105083308       -2.3605395383        0.8681555686
 H          4.7395450705       -2.9873301286       -0.6877166612
 O          3.9335365203       -0.4497249787        1.0916213888
 C          3.3047179700        0.7858619312        1.1355577189
 O          3.6558587401        1.5072970514        2.0921739587
 O          1.1796208691        0.4274004202       -1.7766919804
 C          1.7072633392        2.4564999106        0.1979490392
 C          0.2032453793        2.3312594802        0.2616243797
 C         -0.6505446512        3.2121444099       -0.3912195901
 C         -2.0228992211        3.0816874995       -0.2681735897
 C         -2.5756178506        2.0729904494        0.4990481206
 C         -1.7318364801        1.1780967297        1.1448834604
 C         -0.3563642402        1.3184034901        1.0295249500
 H          0.2965211602        0.6246031603        1.5453175998
 N         -2.2715000596        0.1447586496        1.9236209507
 S         -3.7041823195       -0.5903454708        1.4841003013
 O         -4.8133200296        0.2438366389        1.8769021815
 O         -3.6504782289       -1.8975079607        2.1003571014
 C         -3.6736426700       -0.7449471810       -0.2925744787
 C         -4.6739178004       -0.1666685914       -1.0474867485
 C         -4.6340319109       -0.2976456815       -2.4261847185
 C         -3.5994904008       -1.0014660613       -3.0223540087
 C         -2.6055829104       -1.5824790709       -2.2498772790
 C         -2.6406051400       -1.4543479208       -0.8711352990
 H         -1.8836002997       -1.8967511505       -0.2424296292
 H         -1.8007673304       -2.1276273407       -2.7166867492
 H         -3.5652548012       -1.1006001914       -4.0957109787
 H         -5.4070159312        0.1499924482       -3.0296920683
 H         -5.4598648904        0.3709033484       -0.5420752783
 H         -1.5965440993       -0.5186690301        2.2708726506
 H         -3.6417934205        1.9741519491        0.6194620210
 H         -2.6730730015        3.7770999392       -0.7763174395
 H         -0.2403482916        4.0045574899       -0.9951138203
 H          2.0452059394        2.9261783908        1.1341445590
 C          2.1860228886        3.2996062206       -0.9677098611
 C          2.3447841682        4.7823438007       -0.8216529913
 C          3.5556483784        3.9035914610       -0.9032870316
 H          4.1536425181        3.9262761311       -1.8019371018
 H          4.1286482388        3.7334959913       -0.0029145217
 H          2.1142392077        5.4118494005       -1.6679761913
 H          2.1035745484        5.2211468307        0.1348476188
 H          1.8557858084        2.9096679904       -1.9236269209
