  62
        -98.93843650
 C         -2.6086997819       -0.1073788551       -0.4915800616
 C         -2.1784531908       -0.7031337516        0.7180484012
 C         -1.6870287857       -2.0831599757        0.6134086765
 C         -1.6542992942       -2.6891721832       -0.5869277973
 C         -1.1721096461       -4.0864297495       -0.8711474603
 C          0.3346034446       -4.3175251813       -0.6409437347
 C          0.6742158113       -4.9166288395        0.7295685600
 H         -0.2013683890       -5.4455815223        1.1082332112
 H          1.4616507765       -5.6621408178        0.6019814617
 C          1.1654451960       -3.9234246802        1.7878328946
 H          1.1083319171       -4.4152319341        2.7617689685
 H          2.2150188042       -3.6865597930        1.5980687671
 C          0.4128213566       -2.5943484279        1.8603879827
 H          0.7320864175       -2.0667877361        2.7621666700
 H          0.7114184220       -1.9523882288        1.0276368303
 C         -1.1236209033       -2.7177456726        1.8512645253
 H         -1.4273767474       -3.7615480600        1.9227688943
 H         -1.5424648605       -2.1739082204        2.7006583948
 H          0.6748183377       -5.0101714748       -1.4124466222
 H          0.8678629649       -3.3774988862       -0.7890983762
 H         -1.7482862621       -4.7912932716       -0.2678978938
 H         -1.4082395192       -4.2708021289       -1.9209838945
 O         -2.0943183541       -2.0861185281       -1.7248516313
 C         -2.5512299044       -0.7797964955       -1.7104979703
 O         -2.8812354171       -0.3364650751       -2.8310629216
 O         -2.2063434275       -0.1129775164        1.8310291205
 C         -3.0571055183        1.3419363043       -0.5040884950
 C         -1.9468115987        2.2253497941        0.0152999808
 C         -2.1752571750        3.3499262503        0.7981937166
 C         -1.1138085281        4.1133150714        1.2527647727
 C          0.1901068674        3.7628994728        0.9550605469
 C          0.4290867489        2.6463233841        0.1623760692
 C         -0.6372072707        1.9069638849       -0.3206942688
 H         -0.4407402754        1.0436807810       -0.9392908029
 N          1.7455392515        2.2586812817       -0.1752716536
 S          2.1733542956        0.6582594386        0.1768142502
 O          1.4647807485       -0.2416466457       -0.6975628811
 O          2.0451792954        0.4241491318        1.5981068954
 C          3.8980442427        0.6944306148       -0.2745714505
 C          4.2259442381        0.6605507293       -1.6163490202
 C          5.5614580144        0.7180608168       -1.9814890193
 C          6.5414458947        0.8085793901       -1.0038549008
 C          6.1972039253        0.8387938997        0.3389533939
 C          4.8627900762        0.7831870799        0.7104869806
 H          4.5472454439        0.7957680061        1.7413458780
 H          6.9611359799        0.9055226313        1.0966362115
 H          7.5800496543        0.8527206634       -1.2911373883
 H          5.8322497658        0.6917148984       -3.0246821541
 H          3.4303587172        0.5809551518       -2.3390444209
 H          2.4276153626        2.8656935849        0.2643193754
 H          1.0176166559        4.3448313486        1.3329591231
 H         -1.3045392631        4.9832331688        1.8629001156
 H         -3.1844457661        3.6232680865        1.0602132541
 H         -3.2320756157        1.5973001746       -1.5603303497
 C         -4.3562216452        1.5035026403        0.2588519658
 C         -5.3606959925        2.5336583891       -0.1601759279
 C         -5.6343186761        1.0800552751       -0.3985948040
 H         -6.3844863259        0.5877752515        0.2016613941
 H         -5.5668909598        0.7031815419       -1.4090392894
 H         -5.9290897180        3.0403285452        0.6052129863
 H         -5.1207998176        3.1480786718       -1.0148188187
 H         -4.2429084832        1.2938031035        1.3163398750
