  62
        -98.94619099
 C         -2.8310349135       -0.8795056464        0.2049189236
 C         -2.4703443333       -0.1549469742       -0.9586967746
 C         -2.8327268033        1.2676143039       -0.9539324632
 C         -3.5528960553        1.7722643177        0.0643724868
 C         -3.9685869074        3.2087968879        0.2265922542
 C         -2.8989284309        4.0751617292        0.9072598144
 C         -1.6695814846        4.3861901123        0.0511437934
 H         -1.9896946881        4.8102655668       -0.9010824741
 H         -1.0974772109        5.1543037173        0.5752580202
 C         -0.7519542535        3.1820537847       -0.2091701388
 H         -0.9809107370        2.3857989385        0.5050718168
 H          0.2924009407        3.4600011722       -0.0408848761
 C         -0.8427576037        2.6134473951       -1.6257826727
 H         -0.5109614276        3.3692847909       -2.3413180375
 H         -0.1514135285        1.7682079959       -1.6960726428
 C         -2.2470600686        2.1352734796       -2.0255694136
 H         -2.8918362594        2.9902631906       -2.2272108793
 H         -2.1592869003        1.5357542590       -2.9345198835
 H         -2.5836322071        3.5796247651        1.8287861675
 H         -3.3697269300        5.0213184360        1.1831203534
 H         -4.2218189283        3.6334293662       -0.7443350402
 H         -4.8622630453        3.2091847871        0.8541384909
 O         -3.9919393711        1.0076933879        1.1002557840
 C         -3.5797600759       -0.3116526636        1.2331665539
 O         -3.9412373800       -0.8597600680        2.2947216020
 H         -0.6397453950       -0.4282354191        1.3343971845
 C         -0.0964975603       -1.1944193587        0.7924359797
 C         -0.7959149319       -2.2630282182        0.2448652164
 C         -0.0781724971       -3.2367347924       -0.4367246060
 C          1.2932492081       -3.1198801828       -0.5889591862
 C          1.9774327028       -2.0345738715       -0.0733197722
 C          1.2711833572       -1.0615147941        0.6213183147
 N          1.9523271052        0.0580557103        1.1396467145
 S          2.8021062378        0.9946021397        0.0259068660
 O          2.8160755830        2.3299089176        0.5833017421
 O          2.2692700714        0.8552747456       -1.3078803060
 C          4.4467269535        0.3163494795        0.1011129446
 C          5.0962895596        0.3183087916        1.3200443873
 C          6.3746616045       -0.2105689460        1.3977343745
 C          6.9790895535       -0.7275482153        0.2612594257
 C          6.3148971022       -0.7190356421       -0.9557231501
 C          5.0351413517       -0.1923268882       -1.0398420704
 H          4.4768637517       -0.1691888039       -1.9622997930
 H          6.7863618036       -1.1206592794       -1.8382545510
 H          7.9740466435       -1.1390857653        0.3243149414
 H          6.8943819009       -0.2190250929        2.3422205666
 H          4.5917180918        0.7334177948        2.1765037596
 H          1.3586779542        0.6571032792        1.6962610205
 H          3.0411803693       -1.9269792681       -0.2106921235
 H          1.8354334604       -3.8804583261       -1.1297562155
 H         -0.5957574505       -4.0794648896       -0.8651322106
 C         -2.3002646145       -2.2887033755        0.3948490455
 H         -2.5464466529       -2.5765480502        1.4276717704
 C         -2.9813870692       -3.2504680117       -0.5562085352
 C         -3.1918768662       -4.6819222568       -0.1659106737
 C         -4.3566353168       -3.7409978237       -0.2205205876
 H         -5.0745572224       -3.8499291089       -1.0194230636
 H         -4.7877951351       -3.4007680037        0.7099680079
 H         -2.8395844639       -4.9934572468        0.8057947206
 H         -3.1139429448       -5.4408754802       -0.9296977975
 H         -2.7684977226       -3.0245751103       -1.5947970032
 O         -1.8552631296       -0.6594892802       -1.9323127013
