  62
        -98.93874185
 C         -1.9640369329       -1.3141860551       -0.0648005612
 C         -2.6257046075       -0.6970419815        1.0194498064
 C         -3.7950187517        0.1447858800        0.6988073321
 C         -4.1512178294        0.2902859103       -0.5913663238
 C         -5.2668429342        1.1271838447       -1.1584847585
 C         -4.9299738891        2.6273601386       -1.1793639057
 C         -4.2634421543        3.1559389771        0.0883309904
 H         -3.9715427676        4.1931140760       -0.0975985667
 H         -3.3471467499        2.5917160199        0.2729734331
 C         -5.1360017386        3.1333719456        1.3411909749
 H         -6.0281367525        3.7387225516        1.1660112619
 H         -4.5650596896        3.6089489255        2.1430045409
 C         -5.5752599923        1.7501756373        1.8255365254
 H         -6.3852543171        1.3610782719        1.2146922454
 H         -5.9790484158        1.8726250975        2.8348634095
 C         -4.4517257150        0.7234480494        1.9293051525
 H         -4.8205099578       -0.1382990722        2.4989346799
 H         -3.6399479170        1.1418819771        2.5354026976
 H         -5.8482978262        3.1851869230       -1.3697898861
 H         -4.2466269975        2.8078882630       -2.0129599854
 H         -6.1867143911        0.9431860256       -0.6114462277
 H         -5.4184035893        0.7918213549       -2.1868113227
 O         -3.4685408843       -0.3092378207       -1.6086293852
 C         -2.3697972109       -1.1187150442       -1.3844579355
 O         -1.8561889252       -1.5915453100       -2.4154209814
 O         -2.2504824260       -0.8298078563        2.2170707804
 C         -0.7592183899       -2.1949981220        0.2093124863
 C          0.4651117958       -1.6289205544       -0.4675313616
 C          1.3571985473       -2.3973883551       -1.2032289815
 C          2.4573470267       -1.8108669637       -1.8060083292
 C          2.6981556334       -0.4556120857       -1.6818012572
 C          1.8242348261        0.3189067075       -0.9282187485
 C          0.7260130283       -0.2713280886       -0.3225473690
 H          0.0448561522        0.3356690720        0.2612301134
 N          2.0647294955        1.6942702165       -0.7804690531
 S          3.6319072739        2.2064690700       -0.5021026430
 O          3.4976412121        3.4582768702        0.2095318728
 O          4.3530565723        2.2669434018       -1.7490666052
 C          4.3560206050        0.9627323440        0.5527168413
 C          5.4701714914        0.2655430510        0.1323335685
 C          5.9997813850       -0.7130491458        0.9583530086
 C          5.4065584790       -0.9782660410        2.1826036913
 C          4.2894262302       -0.2664265941        2.5926873284
 C          3.7570840440        0.7142626149        1.7719188231
 H          2.8919735655        1.2876387858        2.0649724681
 H          3.8287769497       -0.4731964296        3.5454278200
 H          5.8160853931       -1.7433401635        2.8230221983
 H          6.8695167336       -1.2665113020        0.6431978036
 H          5.8975460614        0.5023386921       -0.8283819251
 H          1.4052650600        2.1692027289       -0.1828403155
 H          3.5372350910        0.0176540429       -2.1651811504
 H          3.1345358711       -2.4182401554       -2.3865779794
 H          1.1860251090       -3.4550028360       -1.3159010237
 H         -0.6024578754       -2.1432823167        1.2972541673
 C         -1.0566692578       -3.6298065883       -0.1717400567
 C         -0.3870452741       -4.7593710777        0.5506470414
 C         -1.8414163648       -4.4812745919        0.7793755015
 H         -2.5708174744       -5.1674090021        0.3757227331
 H         -2.1374995925       -4.0331238365        1.7167466329
 H         -0.1183232877       -5.6422015832       -0.0095111003
 H          0.3057136085       -4.5078739025        1.3391791839
 H         -1.2612399243       -3.7443322264       -1.2302943146
