  62
        -98.93488439
 C          2.2714669464        0.8823016918       -0.1216424487
 C          3.5643449093        1.2738488539        0.2951726678
 C          4.6920494936        0.4973238160       -0.2480885518
 C          4.4373640894       -0.5140565143       -1.0965320844
 C          5.4298490776       -1.4565491606       -1.7197033585
 C          5.5755447592       -2.7316150059       -0.8716861641
 C          6.6131235918       -2.6459163917        0.2471322520
 H          6.5217867404       -3.5558602541        0.8446598420
 H          7.6131993219       -2.6409242749       -0.1913203336
 C          6.4790271998       -1.4340948941        1.1729854749
 H          5.4274421722       -1.2736731987        1.4177288248
 H          6.9960356426       -1.6666977034        2.1059816592
 C          7.0793271878       -0.1511870560        0.5789337579
 H          7.7606408130        0.2982574484        1.3042481484
 H          7.6815586517       -0.4100772794       -0.2916314224
 C          6.0611277998        0.9338509312        0.1980962775
 H          6.4933804745        1.5720280759       -0.5796914137
 H          5.8761029594        1.5790700708        1.0626533236
 H          4.5947371361       -2.9656608803       -0.4493162948
 H          5.8533126289       -3.5588555964       -1.5280066133
 H          6.3885995254       -0.9672719759       -1.8631414685
 H          5.0250138811       -1.7324568941       -2.6956062893
 O          3.1738390807       -0.8579125605       -1.4733521383
 C          2.0633325359       -0.1811479823       -0.9987754471
 O          0.9750032433       -0.6141776590       -1.4254783249
 O          3.7684421882        2.2255123650        1.0966897693
 C          1.0679696769        1.6460170867        0.4002254011
 C          0.1209593873        0.6994989351        1.0942659537
 C          0.6146484151       -0.1054340372        2.1184038555
 C         -0.2076189246       -1.0034372325        2.7690882878
 C         -1.5380593456       -1.1221245267        2.4068257479
 C         -2.0451112618       -0.3148572524        1.3961751088
 C         -1.2192228447        0.6003151761        0.7565784739
 H         -1.6333141469        1.2091745091       -0.0279302820
 N         -3.4101123097       -0.3871807476        1.0521909469
 S         -3.8896278505       -0.4645177804       -0.5656542432
 O         -3.4640669401       -1.7161725168       -1.1551638225
 O         -3.4976817966        0.7409255255       -1.2473506701
 C         -5.6590043356       -0.4706455338       -0.3369769327
 C         -6.3712316222       -1.6458217272       -0.4784202340
 C         -7.7419081983       -1.6284083915       -0.2708679082
 C         -8.3724739856       -0.4432456980        0.0756468769
 C         -7.6437906303        0.7290503681        0.2138536097
 C         -6.2739877232        0.7184226226        0.0062175879
 H         -5.6678676095        1.6048094542        0.0944878257
 H         -8.1378560946        1.6491373149        0.4814044088
 H         -9.4388408489       -0.4321805886        0.2371157942
 H         -8.3111012043       -2.5375079070       -0.3799721788
 H         -5.8395271849       -2.5419376115       -0.7555987228
 H         -3.8768098248       -1.1340809497        1.5521323163
 H         -2.1788232621       -1.8343719913        2.9050546629
 H          0.1901776495       -1.6244900810        3.5577939264
 H          1.6584598371       -0.0210892471        2.3899932132
 H          1.4678213887        2.3464610248        1.1486863926
 C          0.4259840314        2.4428876007       -0.7151674649
 C         -0.3378877077        3.6936164091       -0.4024000149
 C          0.9976163811        3.7797977600       -1.0763573947
 H          1.0349696177        4.0593135950       -2.1185953478
 H          1.8417676757        4.1281820478       -0.4992696682
 H         -1.2228392564        3.9103785551       -0.9815554737
 H         -0.4030498186        3.9914306260        0.6331384577
 H          0.0680425100        1.8161013721       -1.5256513206
