  62
        -98.94258611
 C          2.1322300024        0.8837429403        0.1675396468
 C          2.5956547253       -0.0302680387        1.1424386337
 C          2.9056201881       -1.3825209520        0.6610486550
 C          2.6926601535       -1.6835524517       -0.6333224571
 C          2.9929259692       -3.0120135179       -1.2636622429
 C          4.4155257825       -3.0483356604       -1.8393649041
 C          5.4874594567       -2.5601456678       -0.8649042060
 H          6.4519986794       -2.6584713100       -1.3673839990
 H          5.3327242415       -1.4964647932       -0.6702683356
 C          5.5254153189       -3.3190773714        0.4688896216
 H          5.0004747102       -4.2696841863        0.3688174867
 H          6.5651772898       -3.5463558390        0.7128070035
 C          4.9490661729       -2.5447580168        1.6556066349
 H          5.4054625957       -1.5528975982        1.7019838422
 H          5.2219993087       -3.0743822129        2.5721247693
 C          3.4246619940       -2.3740228296        1.6646713876
 H          2.9437504729       -3.3452508322        1.5301865368
 H          3.1396850997       -1.9825106270        2.6457904814
 H          4.6370009146       -4.0724093503       -2.1452019809
 H          4.4445590718       -2.4139332765       -2.7282195345
 H          2.8700868006       -3.7964362047       -0.5191623976
 H          2.2759626447       -3.1759706085       -2.0702487488
 O          2.2146112109       -0.7880846126       -1.5350615019
 C          1.9192902315        0.5140186409       -1.1610671026
 O          1.4860191145        1.2293350935       -2.0844377821
 H         -0.2274010111        0.6509455144        1.2042830295
 C         -0.5997215477        1.5359080175        0.7006247791
 C          0.2976662524        2.5247348016        0.3156957962
 C         -0.2007368423        3.6503239897       -0.3260665792
 C         -1.5535525424        3.7617251802       -0.6012630909
 C         -2.4368240645        2.7601924233       -0.2427268265
 C         -1.9501958763        1.6410564151        0.4174002140
 N         -2.8478326440        0.5972553528        0.7671732880
 S         -3.2266635820       -0.4238637421       -0.5311023482
 O         -2.2451566039       -1.4875896339       -0.6147871822
 O         -3.4201710585        0.3775696729       -1.7112910021
 C         -4.7894748134       -1.0886447615        0.0110093614
 C         -5.9091435055       -0.2856080603       -0.0886438906
 C         -7.1253940349       -0.7725189181        0.3618580005
 C         -7.2008992230       -2.0471280755        0.9039551085
 C         -6.0684528892       -2.8414139735        0.9970383188
 C         -4.8483629910       -2.3590158271        0.5490671705
 H         -3.9433624067       -2.9433290376        0.5953708005
 H         -6.1297133540       -3.8327735928        1.4164522730
 H         -8.1485615846       -2.4247289658        1.2540645665
 H         -8.0084705494       -0.1583996603        0.2895356414
 H         -5.8031231591        0.6940479025       -0.5239871881
 H         -2.4530005510        0.0089446876        1.4909968810
 H         -3.4856920802        2.8221328246       -0.4803939884
 H         -1.9218090450        4.6377648925       -1.1131828278
 H          0.4734621414        4.4347354087       -0.6290150477
 C          1.7628150017        2.2936536390        0.5945893720
 H          1.9176962076        2.3212286896        1.6836852623
 C          2.6754114732        3.3110881555       -0.0555974887
 C          2.9569253312        4.6166079854        0.6248263862
 C          4.0223499768        3.5659527347        0.5496135074
 H          4.8618698400        3.7252500005       -0.1102327622
 H          4.2714383524        3.0223576926        1.4493450774
 H          2.4870034197        4.7932430421        1.5803467720
 H          3.0680629423        5.5011467673        0.0161765937
 H          2.6061304764        3.2980534179       -1.1376490674
 O          2.7304060508        0.2680577433        2.3608350484
