  62
        -98.94236718
 C          1.1596882508        1.4353389299        0.4665266485
 C          2.1516285306        1.2251036596       -0.5176674316
 C          3.2936570907        0.3762233798       -0.1301517416
 C          3.3144498009       -0.1898053099        1.0909599186
 C          4.3428253211       -1.0740204396        1.7658625886
 C          5.4769781309       -1.7056297498        0.9635477186
 C          5.0345530608       -2.7830012801       -0.0266956010
 H          5.9017269307       -3.0791550903       -0.6210651911
 H          4.7032890509       -3.6580955600        0.5383849293
 C          3.8980217006       -2.3913573205       -0.9683174809
 H          3.6735864105       -3.2563585507       -1.5989784306
 H          2.9947024207       -2.1805990203       -0.3905624708
 C          4.1899993004       -1.2087535107       -1.8896975713
 H          3.3592348502       -1.1313216710       -2.5966282912
 H          5.0998533402       -1.4044757509       -2.4608369814
 C          4.3318098905        0.1542537995       -1.1922880017
 H          5.3322221505        0.2896479896       -0.7885681920
 H          4.1706072303        0.9332142792       -1.9434100720
 H          6.0550707108       -0.9365163200        0.4599413182
 H          6.1442665111       -2.1799510096        1.6883547086
 H          4.7805440712       -0.4636953194        2.5637553484
 H          3.7717233712       -1.8657715295        2.2620851590
 O          2.3141736811        0.0184100904        1.9978189687
 C          1.2155611610        0.8056460903        1.7077301387
 O          0.3682744212        0.8672505205        2.6231611588
 H         -0.5436561893       -0.3240304003       -0.1123088506
 C         -1.0331151395        0.2389101094       -0.8920175007
 C         -0.8681118095        1.6157788894       -0.9482187911
 C         -1.4819796198        2.3133314091       -1.9806143012
 C         -2.2287498299        1.6378582588       -2.9310707209
 C         -2.4060705799        0.2678054388       -2.8587112004
 C         -1.8008527997       -0.4375550509       -1.8249734103
 N         -1.9580703996       -1.8260695508       -1.6904394299
 S         -2.1065268993       -2.4682812804       -0.1511154896
 O         -0.8199414191       -2.5313327101        0.4962343201
 O         -2.7660402093       -3.7404703905       -0.3598457491
 C         -3.2116306891       -1.3514465201        0.6955275802
 C         -4.5303253592       -1.3457698003        0.2805177305
 C         -5.4177669091       -0.4584083302        0.8650268204
 C         -4.9726711889        0.4114094102        1.8494063701
 C         -3.6493321388        0.3889663603        2.2593658398
 C         -2.7555751889       -0.4996252898        1.6802860199
 H         -1.7204258689       -0.5249881397        1.9853462897
 H         -3.2941402487        1.0605828006        3.0249561695
 H         -5.6599889389        1.1085799103        2.3020718500
 H         -6.4490811392       -0.4444675103        0.5514519106
 H         -4.8392943193       -2.0456107605       -0.4788684592
 H         -2.6072082897       -2.2472517011       -2.3386343196
 H         -2.9972195500       -0.2535157014       -3.5956791601
 H         -2.6903891201        2.1893879585       -3.7357939109
 H         -1.3692765698        3.3829825491       -2.0458879716
 C         -0.0648642593        2.2728193198        0.1494089985
 H         -0.6827308791        2.2587550500        1.0604007386
 C          0.3220467906        3.7048847997       -0.1536076620
 C         -0.6174350494        4.8246663098        0.1763040578
 C          0.6256893808        4.6258012000        0.9886874076
 H          1.4349345507        5.3321961200        0.8807764973
 H          0.5284634310        4.2245439903        1.9873483178
 H         -0.6608611595        5.6740091796       -0.4886308624
 H         -1.5630846493        4.5675784799        0.6290578681
 H          0.9351713504        3.7910941594       -1.0427676522
 O          2.0971156103        1.7260927693       -1.6713439818
