  62
        -98.93208188
 C          2.5560012802        0.9842025001        0.4644412707
 C          2.8926520900       -0.2367456802        1.1022104303
 C          4.2205168999       -0.8056912003        0.8166998202
 C          5.0406338500       -0.1603670301       -0.0333547296
 C          6.4580732400       -0.4557656901       -0.4780149396
 C          7.1081357998       -1.8013198603       -0.1689287800
 C          6.5119406297       -2.9852458400       -0.9303135705
 H          6.7890818398       -2.8937839196       -1.9836012304
 H          6.9629760095       -3.9028274002       -0.5465713808
 C          4.9919979697       -3.1126256398       -0.8658327106
 H          4.7025033596       -3.9738080695       -1.4742623609
 H          4.5298620898       -2.2320256395       -1.3169447303
 C          4.4112961995       -3.3166962802        0.5317599193
 H          3.3463665095       -3.5364289600        0.4166618691
 H          4.8824007794       -4.1818818604        1.0024913890
 C          4.5359161697       -2.1145199905        1.4824886597
 H          3.7969773096       -2.2372024507        2.2797018396
 H          5.5172557496       -2.0817825108        1.9496990098
 H          7.0958070797       -1.9871937407        0.9009882299
 H          8.1578219698       -1.7155405104       -0.4626666599
 H          6.4734150001       -0.2897920197       -1.5599864595
 H          7.0740360401        0.3363072896       -0.0379658492
 O          4.6683413002        1.0043554902       -0.6369459292
 C          3.4368907603        1.6020453303       -0.4215697290
 O          3.2799096005        2.6529887406       -1.0733546587
 H         -1.0670708600        0.1583997904        1.1283227002
 C         -0.9656967499        0.5143369607        0.1117849003
 C          0.1588561002        1.2455625007       -0.2425144794
 C          0.2817344004        1.6864853612       -1.5557062192
 C         -0.6979583196        1.3918936516       -2.4866286194
 C         -1.8167122897        0.6593143317       -2.1309604797
 C         -1.9508997499        0.2167874112       -0.8220893699
 N         -3.0800311900       -0.5378541287       -0.4566142402
 S         -4.5773850199        0.0049140817       -1.0261203401
 O         -4.7734766099       -0.5126924578       -2.3570791503
 O         -4.6659740497        1.4409426516       -0.8875054096
 C         -5.6932114401       -0.7981875986        0.1076828195
 C         -6.0950297402       -2.0947673184       -0.1512517809
 C         -6.9453348704       -2.7230362386        0.7447825788
 C         -7.3763711704       -2.0490422390        1.8778006390
 C         -6.9655343102       -0.7473628791        2.1232989395
 C         -6.1143299500       -0.1134171789        1.2320631698
 H         -5.7784897399        0.9010041010        1.3771351501
 H         -7.3050499602       -0.2247996994        3.0031232496
 H         -8.0394806005       -2.5397652091        2.5726060188
 H         -7.2697488505       -3.7337126985        0.5564336384
 H         -5.7428443603       -2.5753874581       -1.0489904311
 H         -3.1107140601       -0.7241344991        0.5365406097
 H         -2.5903721697        0.4320238720       -2.8469679098
 H         -0.5908672095        1.7392087420       -3.5036179892
 H          1.1534732405        2.2556112811       -1.8401198589
 C          1.1989859402        1.5759432602        0.8023305408
 H          0.8996014201        1.0791821599        1.7353095406
 C          1.2382353704        3.0716631201        1.0506115114
 C          0.1427264305        3.7012847300        1.8554989915
 C          1.5212724604        3.5795499496        2.4310034416
 H          2.1189459005        4.4721412294        2.5378172319
 H          1.6868388603        2.8478811693        3.2084551213
 H         -0.6287070596        3.0532302399        2.2433373712
 H         -0.2112354794        4.6787126801        1.5660153918
 H          1.6416215506        3.6354675203        0.2200077316
 O          2.1146449998       -0.8238085303        1.9021366900
