  62
        -98.94356016
 C         -1.0619641785       -1.4850805621       -0.6581569229
 C         -0.4845990878       -1.9401443807        0.5486690351
 C          0.9429871504       -2.3191983585        0.5042631177
 C          1.6049920541       -2.2221424296       -0.6633142178
 C          3.0449365718       -2.5530275884       -0.9649507731
 C          4.0399923720       -1.5099694065       -0.4381802195
 C          3.8067854140       -1.0744455336        1.0056551799
 H          4.5388889609       -0.2960147119        1.2401382958
 H          2.8203948230       -0.6158458399        1.1036523065
 C          3.9541746875       -2.1838738121        2.0449164653
 H          4.9383999363       -2.6465782014        1.9409810012
 H          3.9126470108       -1.7066464586        3.0274154197
 C          2.8857067549       -3.2811820990        2.0111175586
 H          3.0990637303       -4.0239786923        1.2463652471
 H          2.9268268894       -3.8039338871        2.9710218879
 C          1.4597241139       -2.7644849713        1.8495568442
 H          0.7614587236       -3.5400098654        2.1863180075
 H          1.2998528661       -1.9177563709        2.5285089349
 H          3.9796081665       -0.6214069580       -1.0718164432
 H          5.0470181162       -1.9211525703       -0.5341065022
 H          3.2885800022       -3.5379262212       -0.5770751606
 H          3.1300746842       -2.5952771255       -2.0533833468
 O          1.0030639882       -1.7720898922       -1.8043412097
 C         -0.3191938535       -1.3722461073       -1.8304550838
 O         -0.7109134370       -0.9465586019       -2.9362121314
 H         -0.8811733002        1.0127342431       -0.2724598377
 C         -1.7268357715        1.0611078094        0.3977262397
 C         -2.7035965887        0.0765302092        0.3248105146
 C         -3.7968676117        0.1638679030        1.1764603446
 C         -3.8818592212        1.1930342531        2.0987457979
 C         -2.8788230747        2.1390934898        2.2039251099
 C         -1.7877758095        2.0683794755        1.3449609347
 N         -0.7472520718        3.0079016119        1.4030864214
 S          0.8250187529        2.5044398048        1.1184520013
 O          1.0581960031        1.1579172321        1.5824993282
 O          1.6419523034        3.5343821167        1.7277985808
 C          1.0048176270        2.6030179629       -0.6488707857
 C          1.5640524746        1.5415462047       -1.3303553022
 C          1.7081902713        1.6234836795       -2.7055453141
 C          1.2953267104        2.7667614824       -3.3715608637
 C          0.7428839344        3.8293912684       -2.6720737466
 C          0.5947886882        3.7512308522       -1.2966526843
 H          0.1673352997        4.5540011810       -0.7194185319
 H          0.4226392235        4.7153299172       -3.1964643939
 H          1.4022417992        2.8250032082       -4.4432245407
 H          2.1230965267        0.7884936950       -3.2475867948
 H          1.8561825015        0.6643106785       -0.7744340524
 H         -0.8026159113        3.6620534403        2.1702085378
 H         -2.9330677935        2.9222750979        2.9447724076
 H         -4.7333649361        1.2474539739        2.7601315019
 H         -4.5754549035       -0.5797680904        1.1285576381
 C         -2.5100642134       -1.0301421803       -0.6837123377
 H         -2.6810978072       -0.6158454165       -1.6885495145
 C         -3.4406543044       -2.2066089401       -0.4748138888
 C         -4.8049370589       -2.2118255012       -1.0948163657
 C         -3.7332974626       -3.1096332583       -1.6339483845
 H         -3.8080133629       -4.1716249933       -1.4543970406
 H         -3.2807347231       -2.8581682819       -2.5822331257
 H         -5.6189690407       -2.6616079829       -0.5465513644
 H         -5.0892718838       -1.3539212237       -1.6850425222
 H         -3.3155640152       -2.6656587358        0.4992425701
 O         -1.1309229569       -2.0407816994        1.6250035316
