  62
        -98.93750585
 C          1.8378791001        0.8320691206       -0.4647655081
 C          3.1667468300        1.2546244905       -0.2422811674
 C          4.2133233501        0.2140497106       -0.2787284882
 C          3.8507938502       -1.0585899492       -0.5265063295
 C          4.7269634403       -2.2818863791       -0.5740641604
 C          5.1316467801       -2.7733889603        0.8254337592
 C          5.5534885198       -1.6734154212        1.7962656303
 H          4.7395732398       -0.9530363814        1.8978725308
 H          5.7010730497       -2.1342337421        2.7766660999
 C          6.8398887498       -0.9377616808        1.4285340712
 H          7.6604895099       -1.6568898107        1.3759069307
 H          7.0602645096       -0.2426616315        2.2428929119
 C          6.8073138200       -0.1430579096        0.1214847719
 H          6.9011921002       -0.8005126988       -0.7386223187
 H          7.6888560900        0.5048223905        0.1136031727
 C          5.5965334200        0.7707505605       -0.0416860974
 H          5.5138509598        1.4157021697        0.8408136332
 H          5.7871513801        1.4535379113       -0.8788166568
 H          4.2737422300       -3.2901843408        1.2625929985
 H          5.9415449902       -3.4967091202        0.7172102286
 H          4.1447500204       -3.0664868887       -1.0622501413
 H          5.6027943904       -2.0901669284       -1.1866627601
 O          2.5528207903       -1.4198240091       -0.7361985500
 C          1.5177154502       -0.5026037592       -0.7098396294
 O          0.3908478203       -0.9878908891       -0.9151441300
 O          3.4748768399        2.4559340603       -0.0101443262
 C          0.7213789800        1.8585567705       -0.4401262273
 C         -0.3244190802        1.4801539695        0.5789713522
 C          0.0829150196        1.0573904383        1.8416545418
 C         -0.8414627605        0.6906032574        2.8004889013
 C         -2.1974683305        0.7486624275        2.5285823811
 C         -2.6164166203        1.1780048287        1.2770994115
 C         -1.6836321601        1.5446038096        0.3129629720
 H         -2.0291494100        1.8757582805       -0.6541205578
 N         -3.9970864002        1.2568914588        1.0016130613
 S         -4.9155448001       -0.1421997713        1.0212806298
 O         -6.2715130301        0.2834100589        0.7596747500
 O         -4.6904866703       -0.8353531524        2.2633695392
 C         -4.3247703298       -1.1164444299       -0.3522876410
 C         -3.0433827698       -1.6284723799       -0.3049025012
 C         -2.5621704995       -2.3324761388       -1.3972925718
 C         -3.3713352293       -2.5213746578       -2.5071473021
 C         -4.6598238094       -2.0086130879       -2.5362703719
 C         -5.1404818496       -1.2906835490       -1.4533437213
 H         -6.1306099496       -0.8644679291       -1.4357821511
 H         -5.2858483292       -2.1594674672       -3.4011563222
 H         -2.9916855091       -3.0697474170       -3.3551399026
 H         -1.5477380195       -2.6967096788       -1.3769119720
 H         -2.4280228900       -1.4689380407        0.5656274490
 H         -4.2085134801        1.7770360296        0.1611802117
 H         -2.9311054406        0.4497652868        3.2588971207
 H         -0.5055766807        0.3587060165        3.7715886411
 H          1.1413208796        1.0124586982        2.0602634020
 H          1.1942109198        2.7971727002       -0.1137554863
 C          0.1652165302        2.0543029618       -1.8355764572
 C         -0.4011632398        3.3795972821       -2.2480513561
 C          0.9171395503        2.9244053527       -2.7959319963
 H          0.9713005905        2.6235588337       -3.8313978065
 H          1.8163227802        3.3999964025       -2.4323811357
 H         -1.2518972597        3.3943002527       -2.9129617462
 H         -0.3977074200        4.1747796114       -1.5177530253
 H         -0.2927608696        1.1535645421       -2.2299461381
