  62
        -98.94418712
 C         -1.9765220186       -1.3110541285        0.0401337662
 C         -2.2916763418       -0.3490985680       -0.9499380078
 C         -3.6985892748        0.0770148476       -1.0045122381
 C         -4.5883504686       -0.4583854901       -0.1497565432
 C         -6.0362196798       -0.0739082926       -0.0631739482
 C         -6.2507754420        1.0571681885        0.9523434140
 C         -5.2943297198        2.2366741771        0.7754598732
 H         -5.5590330541        2.9851371632        1.5255549248
 H         -4.2760426188        1.9080704531        0.9968612164
 C         -5.3270646285        2.8775320063       -0.6191002365
 H         -6.2433321852        2.5915559005       -1.1370280018
 H         -5.3449867641        3.9634558046       -0.5046891266
 C         -4.1218250407        2.5427441350       -1.4999378023
 H         -3.1986301111        2.7400967177       -0.9485395285
 H         -4.1359197479        3.2131363188       -2.3635731810
 C         -4.0664341285        1.1064886048       -2.0357165711
 H         -5.0160133310        0.8544661559       -2.5120188775
 H         -3.2794922304        1.0658722083       -2.7944964064
 H         -7.2813707936        1.4065090962        0.8673079971
 H         -6.1110595804        0.6518814596        1.9571638530
 H         -6.3843882078        0.2357784503       -1.0465913370
 H         -6.6058703333       -0.9485749353        0.2552467247
 O         -4.2518280012       -1.3899231688        0.7779924025
 C         -2.9441826834       -1.8219332470        0.9099591678
 O         -2.7698722656       -2.6568126359        1.8196410405
 H          0.9607388062        0.0752753375       -1.0353039477
 C          0.9845346554        0.1834649033        0.0374330172
 C          0.2680441699       -0.6976297387        0.8331703749
 C          0.2910640517       -0.5174994876        2.2128761220
 C          1.0138382493        0.5163828229        2.7800943069
 C          1.7224447570        1.3982896898        1.9821992019
 C          1.6957422048        1.2319531629        0.6045494972
 N          2.4199760194        2.1274878772       -0.2147030336
 S          4.0864077616        2.0379085681       -0.0692703535
 O          4.4680288865        2.5156754095        1.2351582658
 O          4.6226351658        2.7605859087       -1.1999394074
 C          4.4481501144        0.2977485811       -0.2153783958
 C          4.6586458740       -0.2324774233       -1.4725232590
 C          4.8593120908       -1.5973661134       -1.5993215701
 C          4.8317265524       -2.4060088016       -0.4734138943
 C          4.6143729026       -1.8582751939        0.7813331349
 C          4.4196082952       -0.4930746618        0.9157586001
 H          4.2524384936       -0.0295058159        1.8740849710
 H          4.5926846836       -2.4893675708        1.6552498414
 H          4.9797828800       -3.4696681260       -0.5744216012
 H          5.0318604359       -2.0259026467       -2.5737266461
 H          4.6747303538        0.4321829820       -2.3215711980
 H          2.1629734232        2.0544084831       -1.1895270686
 H          2.3003434137        2.2047345845        2.4041402811
 H          1.0239545019        0.6396692021        3.8525893912
 H         -0.2749435110       -1.1960124507        2.8360355667
 C         -0.5553036844       -1.8150626767        0.2411656036
 H         -0.6266062955       -2.6142943579        0.9902978859
 C          0.0417937191       -2.3885816638       -1.0278441437
 C          1.3271100449       -3.1541293438       -0.9421641133
 C          0.0444309424       -3.8720601689       -1.2334264633
 H         -0.1200881443       -4.2530317269       -2.2302056572
 H         -0.3872278845       -4.4857003802       -0.4562442697
 H          2.0484727721       -3.0416709505       -1.7366744095
 H          1.7678655120       -3.2751660337        0.0356610099
 H         -0.1222879569       -1.7704097433       -1.9009507587
 O         -1.4559233086        0.1343217966       -1.7584043470
