  62
        -98.93791315
 C         -1.7671843065       -0.6927427099        0.5267479306
 C         -3.0373516720       -0.7736740967        1.1410053723
 C         -4.2048238711       -0.5600408464        0.2678516226
 C         -4.0047751733       -0.3132999523       -1.0386366654
 C         -5.0438368160       -0.0153372926       -2.0840755165
 C         -5.2462426863        1.5021894314       -2.2330607330
 C         -6.2746952319        2.1118876953       -1.2811900218
 H         -7.2752008838        1.7951469860       -1.5832623465
 H         -6.2250839890        3.1967425009       -1.4006114288
 C         -6.0804156100        1.7710299084        0.1986380768
 H         -6.6065818314        2.5247700969        0.7877799413
 H         -5.0221054361        1.8420324171        0.4565688646
 C         -6.6179469177        0.3821009418        0.5743496161
 H         -7.2327024568        0.0051201136       -0.2428015981
 H         -7.2768057985        0.4719219498        1.4406215346
 C         -5.5479510627       -0.6575141213        0.9385377240
 H         -5.9521273275       -1.6606269816        0.7652712717
 H         -5.3276517519       -0.5920746316        2.0088929830
 H         -5.5651564409        1.7148927252       -3.2554803521
 H         -4.2768682949        1.9859299532       -2.0868979760
 H         -5.9792607530       -0.5162879813       -1.8534471050
 H         -4.6574189384       -0.4079616062       -3.0269318143
 O         -2.7625949553       -0.2495509880       -1.5916730710
 C         -1.6169521107       -0.4325332120       -0.8354130156
 O         -0.5561324442       -0.3419101726       -1.4784807517
 O         -3.1905301852       -1.0065568063        2.3715075404
 C         -0.5292038853       -0.9106656472        1.3737900261
 C          0.3970860505        0.2801584037        1.3294639266
 C         -0.1167771019        1.5675909935        1.2076550850
 C          0.7202253963        2.6658484814        1.1437575823
 C          2.0932869336        2.5088280685        1.2167103821
 C          2.6162255864        1.2335584011        1.3691559976
 C          1.7736638336        0.1302880428        1.4256137805
 H          2.2009021503       -0.8546316526        1.5371986233
 N          4.0208253250        1.0782743311        1.4417623205
 S          4.8326389591        1.2289637272       -0.0184215780
 O          6.2349358448        1.0595356356        0.2874151335
 O          4.4527066890        2.4753639200       -0.6300658041
 C          4.2527650154       -0.1574523953       -0.9784631195
 C          5.0322096057       -1.2958862699       -1.0527284775
 C          4.5336536071       -2.4066494754       -1.7132673113
 C          3.2622002997       -2.3676059830       -2.2673155702
 C          2.4902829265       -1.2192982447       -2.1805635737
 C          2.9898015640       -0.1003469233       -1.5325183900
 H          2.4037355206        0.8008548111       -1.4528757211
 H          1.4894844419       -1.1817036752       -2.5811510616
 H          2.8674507483       -3.2377867522       -2.7684996344
 H          5.1310953003       -3.3012932540       -1.7867901336
 H          6.0104753903       -1.2842011497       -0.5994992954
 H          4.3023318245        0.2107701309        1.8789460674
 H          2.7629928225        3.3498283057        1.1439195226
 H          0.2998093947        3.6543898274        1.0347830958
 H         -1.1885901308        1.6999953365        1.1500119111
 H         -0.8981754558       -1.0192489153        2.4053030713
 C          0.1582551191       -2.1991412370        0.9631872533
 C          0.8267131868       -3.0711536892        1.9829796766
 C         -0.4623832917       -3.5054062845        1.3546643604
 H         -0.4460324078       -4.3185491467        0.6449176492
 H         -1.3618859123       -3.4653888846        1.9517448616
 H          1.7307306705       -3.5913993186        1.7031959254
 H          0.8003014299       -2.7507715944        3.0138581497
 H          0.6043154576       -2.1322727239       -0.0230405239
