  62
        -98.93505568
 C         -2.3716533010       -1.3499957268        0.1935844537
 C         -2.2444885635        0.0284191893       -0.1052649720
 C         -3.3336290129        0.9085034615        0.3676224120
 C         -4.3758311532        0.3842193364        1.0367050097
 C         -5.5990399622        1.0314427999        1.6519949287
 C         -5.9875390632        2.4647838598        1.2988006177
 C         -6.4407604406        2.6683537721       -0.1465506261
 H         -6.5955878310        3.7373612870       -0.3079935325
 H         -7.4029579815        2.1683659941       -0.2828671900
 C         -5.4910501898        2.1375941476       -1.2175761166
 H         -5.9363195101        2.3486623811       -2.1936266319
 H         -5.4089362600        1.0522397416       -1.1301655154
 C         -4.0888199244        2.7436138119       -1.2067370862
 H         -4.1573269226        3.8322304721       -1.2534607732
 H         -3.5750159533        2.4034335077       -2.1102017354
 C         -3.2104878773        2.3584705488       -0.0034140045
 H         -3.4157149479        2.9923931537        0.8559522360
 H         -2.1642720584        2.5175796350       -0.2825687617
 H         -5.1777707621        3.1459924967        1.5434277308
 H         -6.8279363664        2.7270831284        1.9472556699
 H         -6.4358892402        0.3660395208        1.4168797484
 H         -5.4528026459        0.9701399987        2.7361005937
 O         -4.4452302906       -0.9501252040        1.3175411125
 C         -3.4596113314       -1.8351142877        0.9240303582
 O         -3.6642396730       -3.0128495882        1.2788095830
 H          0.6192583384       -1.1695481215       -1.6989225526
 C          0.9089431959       -1.2771719212       -0.6652814080
 C          0.0419665593       -1.8828913407        0.2291194162
 C          0.4186128969       -1.9780040674        1.5651230204
 C          1.6361987875       -1.4812883923        1.9911192894
 C          2.4964462329       -0.8686261564        1.0966175572
 C          2.1200424383       -0.7515409591       -0.2342698018
 N          2.9788445415       -0.1189031474       -1.1483337711
 S          3.7269555442        1.3139966204       -0.6987285037
 O          2.9532450756        2.0609440476        0.2651078047
 O          4.0274534477        1.9861945730       -1.9446937897
 C          5.2554237571        0.7696320787        0.0392512833
 C          6.0489354212       -0.1089463155       -0.6722224120
 C          7.2457463383       -0.5310633543       -0.1159480240
 C          7.6294145129       -0.0677504083        1.1337880309
 C          6.8240813120        0.8171611503        1.8339393190
 C          5.6249759040        1.2422788759        1.2832089354
 H          4.9638846795        1.9248803079        1.7935315893
 H          7.1235846403        1.1772233202        2.8051394522
 H          8.5613496597       -0.3980604742        1.5646781950
 H          7.8746453293       -1.2192188608       -0.6574570661
 H          5.7166386781       -0.4430261531       -1.6407483259
 H          2.5849619027       -0.0364938434       -2.0747825842
 H          3.4393208959       -0.4626432753        1.4249129793
 H          1.9172294035       -1.5654636069        3.0300012421
 H         -0.2630626369       -2.4365668159        2.2686778348
 C         -1.3187079035       -2.3778097264       -0.1911215442
 H         -1.5592125170       -3.2650483071        0.4158564326
 C         -1.3666725565       -2.8238671084       -1.6451972803
 C         -2.6845275892       -3.0678859319       -2.3166578531
 C         -1.8128260698       -1.9356917199       -2.7656397538
 H         -1.3088913627       -2.0257556151       -3.7173877230
 H         -2.1113666837       -0.9274142659       -2.5267734547
 H         -3.5767784144       -2.8341267964       -1.7537316142
 H         -2.7861093148       -3.9291510581       -2.9594672212
 H         -0.5717254010       -3.5278250096       -1.8727824868
 O         -1.2794299386        0.5289754090       -0.7394011963
