  62
        -98.92971252
 C         -2.2384303074       -0.2166723775        0.3858078374
 C         -3.3367331654       -0.8522856548       -0.2420114207
 C         -4.4599840472        0.0231333547       -0.6363612453
 C         -4.3744018514        1.3457515565       -0.4194020826
 C         -5.4166941393        2.3918392250       -0.7034057551
 C         -6.2824548599        2.6482287460        0.5418466853
 C         -7.4878539054        1.7205970943        0.6909292258
 H         -7.9308076212        1.9189091298        1.6696581562
 H         -8.2334693617        1.9779694352       -0.0642266355
 C         -7.1802443474        0.2246939839        0.5840944438
 H         -7.9966586170       -0.3197173007        1.0626705002
 H         -6.2696563896       -0.0041591820        1.1409058212
 C         -7.0424640796       -0.2608966158       -0.8665043673
 H         -7.6803983222       -1.1342935518       -1.0165296191
 H         -7.4154422738        0.5130017010       -1.5370632220
 C         -5.6241227498       -0.6714253619       -1.2896960654
 H         -5.4708614457       -1.7324454815       -1.0688979075
 H         -5.5297737261       -0.5625580635       -2.3751786608
 H         -5.6379740109        2.5603930134        1.4205038172
 H         -6.6489120579        3.6762694195        0.5082099103
 H         -6.0268333996        2.1068910259       -1.5553224552
 H         -4.8770541884        3.3094759655       -0.9467186784
 O         -3.2871816958        1.9215308097        0.1670043246
 C         -2.2114683056        1.1652486990        0.5884368875
 O         -1.3019468277        1.8273874281        1.1309457184
 O         -3.4025522311       -2.0870206093       -0.4693843797
 C         -1.0140565855       -0.9683848264        0.8806807379
 C          0.0154222464       -1.1197145165       -0.2103440644
 C         -0.3301616070       -1.5928048584       -1.4725041593
 C          0.6322681588       -1.7257271723       -2.4563135609
 C          1.9508231278       -1.3923052721       -2.2027946646
 C          2.3091066455       -0.9278044655       -0.9421738424
 C          1.3397518109       -0.7917723285        0.0422432710
 H          1.6249235047       -0.4066046166        1.0097646452
 N          3.6529529951       -0.6379018251       -0.6502592116
 S          4.0268278162        0.6201346670        0.4114007332
 O          3.7793001541        0.1766132240        1.7601272580
 O          3.3665064864        1.8377215045       -0.0029549073
 C          5.7842297984        0.7402262647        0.1343968015
 C          6.2816351297        1.7448472223       -0.6735426570
 C          7.6476428808        1.8072480362       -0.9014191329
 C          8.4874873472        0.8672402762       -0.3235729229
 C          7.9734638567       -0.1348036154        0.4863436663
 C          6.6092757195       -0.2018337031        0.7197799122
 H          6.1656566790       -0.9557236520        1.3488060935
 H          8.6299274246       -0.8620181674        0.9362409212
 H          9.5497723758        0.9176544842       -0.5031491684
 H          8.0502361392        2.5873214212       -1.5272606466
 H          5.5910783315        2.4578244619       -1.0948744797
 H          4.2261394439       -0.5885883721       -1.4820757472
 H          2.6995075278       -1.4946666475       -2.9736720635
 H          0.3516198646       -2.0903094787       -3.4330295721
 H         -1.3568191034       -1.8603081583       -1.6699318766
 H         -0.5720994443       -0.3188864366        1.6544453880
 C         -1.3584706473       -2.2934805158        1.5497869430
 C         -1.0161568024       -3.6288512365        0.9686068056
 C         -0.2679201584       -3.1220180625        2.1622587132
 H         -0.4454709755       -3.5814238210        3.1229268832
 H          0.7485698218       -2.7874353631        2.0141625134
 H         -1.7302900089       -4.4268991709        1.1013826641
 H         -0.5053399811       -3.6558360024        0.0193894496
 H         -2.2912077845       -2.2345870848        2.1016308217
