  62
        -98.94232992
 C         -1.8857640537        0.6091194670       -0.0663921482
 C         -2.9555098062        0.5242728177       -0.9965376970
 C         -4.0467955211       -0.3941078418       -0.6569680206
 C         -3.9787326734       -1.1171797763        0.4749973055
 C         -4.9945413464       -2.1203036034        0.9501249428
 C         -6.1777896266       -1.5027209099        1.7078116828
 C         -7.1745975307       -0.7325557933        0.8408644698
 H         -7.4889522605       -1.3601141864        0.0063396315
 H         -8.0562355936       -0.5444552057        1.4568111461
 C         -6.6480568638        0.6081424405        0.3099826969
 H         -5.7702366952        0.9085403027        0.8867259570
 H         -7.4063152914        1.3807243292        0.4559363187
 C         -6.2858342932        0.6039621966       -1.1752311614
 H         -5.8899851920        1.5891747941       -1.4343890183
 H         -7.1853432758        0.4351878847       -1.7713630545
 C         -5.2368318968       -0.4450962132       -1.5666629617
 H         -5.6792900058       -1.4411588871       -1.5584877056
 H         -4.8907298249       -0.2237356058       -2.5792269578
 H         -5.7882326498       -0.8444341788        2.4878052165
 H         -6.7114900726       -2.3197174163        2.1989268000
 H         -4.4691177859       -2.7985331512        1.6261345596
 H         -5.3651302136       -2.6953530101        0.1008796914
 O         -2.9285100309       -1.0281672105        1.3306124216
 C         -1.8654053266       -0.1616701588        1.0965609575
 O         -0.9962355073       -0.1977793160        1.9880553602
 O         -2.9949370413        1.1928724673       -2.0634933925
 C         -0.7712959213        1.5838582442       -0.4057751784
 C          0.3839616697        0.8950529812       -1.0854857701
 C          0.9085045572        1.3860137114       -2.2751275733
 C          1.9815903167        0.7589658900       -2.8851923704
 C          2.5552931760       -0.3657935744       -2.3203505613
 C          2.0395574925       -0.8628379746       -1.1300242700
 C          0.9626312404       -0.2342462950       -0.5219194212
 H          0.5686211573       -0.6245328188        0.4049104163
 N          2.6214688850       -2.0014738355       -0.5361358550
 S          4.2583805797       -1.9118927577       -0.1848094667
 O          5.0080877665       -1.9966867476       -1.4128461316
 O          4.5029455699       -2.9537764532        0.7858739782
 C          4.4731431020       -0.3038482936        0.5533315037
 C          4.8506858580        0.7653398089       -0.2341939027
 C          4.9325497291        2.0231355657        0.3416172209
 C          4.6398964164        2.1889606169        1.6863028438
 C          4.2689509177        1.1034692059        2.4652053118
 C          4.1763991982       -0.1551176483        1.8936642059
 H          3.8892466820       -1.0234073192        2.4652690821
 H          4.0417670578        1.2337470385        3.5109858652
 H          4.6990501791        3.1695173842        2.1309045525
 H          5.2204246306        2.8691812128       -0.2610827333
 H          5.0783071851        0.5936082994       -1.2730333741
 H          2.1154344637       -2.3175745669        0.2793463061
 H          3.3926006217       -0.8665460379       -2.7789623084
 H          2.3745478820        1.1483738078       -3.8118450032
 H          0.4604619298        2.2577259312       -2.7288745187
 H         -1.2220872464        2.2689142244       -1.1410712794
 C         -0.3326579371        2.4280425405        0.7841637343
 C          0.9733876525        2.2572551808        1.4938235143
 C          0.7507090457        3.4533891705        0.6213499569
 H          0.6219282468        4.4195516075        1.0845443447
 H          1.2684250663        3.4790447722       -0.3254386401
 H          0.9773168164        2.3838568875        2.5653626351
 H          1.6510419227        1.4930160614        1.1479210433
 H         -1.1783789024        2.7088718431        1.4044855330
