  62
        -98.94055025
 C         -2.3641387365       -0.7753890792       -0.1145787989
 C         -3.5601120131       -1.0734993117        0.5814743885
 C         -4.7936756319       -0.5487869308       -0.0139806678
 C         -4.7350950422        0.1481755974       -1.1635880287
 C         -5.9081372028        0.7263667922       -1.9079920160
 C         -6.3629079538        2.0974069342       -1.3889332600
 C         -7.0845077395        2.0758693662       -0.0408782210
 H         -7.5353882449        3.0606111329        0.0968698072
 H         -7.8958736033        1.3482935666       -0.0759958099
 C         -6.1747650498        1.7777458144        1.1591063296
 H         -5.1316748210        1.9287258907        0.8712367941
 H         -6.3897442223        2.4842477142        1.9640087206
 C         -6.3295861108        0.3712033538        1.7377437764
 H         -7.3341369664        0.2526370101        2.1497280309
 H         -5.6143367478        0.2561639612        2.5562432375
 C         -6.0790060196       -0.7573574048        0.7287975741
 H         -5.9955523113       -1.6976161804        1.2792125746
 H         -6.9136605467       -0.8320573087        0.0323004409
 H         -7.0421158446        2.5184107976       -2.1337774495
 H         -5.4911603926        2.7527588149       -1.3257011635
 H         -6.7441254554        0.0272407813       -1.8742686105
 H         -5.5903059070        0.8396277163       -2.9466230325
 O         -3.5657531734        0.3983145163       -1.8113632614
 C         -2.3523013357       -0.0352979539       -1.2966262580
 O         -1.3615782452        0.2925785776       -1.9769694415
 O         -3.5939395090       -1.7429827189        1.6488581384
 C         -1.0454303964       -1.2720060961        0.4482744808
 C         -0.1268180786       -0.1093900978        0.7318661225
 C         -0.6000997867        0.9445545411        1.5108145236
 C          0.2064422372        2.0269034499        1.8014782772
 C          1.5086818332        2.0763838178        1.3349609581
 C          1.9905975835        1.0313339482        0.5569444381
 C          1.1744207279       -0.0525429174        0.2610144791
 H          1.5769820402       -0.8470173030       -0.3443605714
 N          3.2985421278        1.0621812176        0.0482505522
 S          4.1501485601       -0.3896073056       -0.0771764271
 O          3.8050752191       -1.0349052811       -1.3186822971
 O          3.9695185748       -1.1737207591        1.1237590295
 C          5.8217764246        0.2271332963       -0.1644604966
 C          6.3045025094        0.6717630280       -1.3809067075
 C          7.5916190070        1.1814465005       -1.4447487676
 C          8.3703225203        1.2380203275       -0.2982521194
 C          7.8733112348        0.7857666434        0.9148217311
 C          6.5863053747        0.2761664382        0.9860499493
 H          6.1610705631       -0.0950400234        1.9046278773
 H          8.4824250317        0.8275052146        1.8033593315
 H          9.3719932265        1.6343698317       -0.3514111319
 H          7.9824349565        1.5311543468       -2.3866642285
 H          5.6663910308        0.5995050602       -2.2463219259
 H          3.8627631919        1.7962387245        0.4536081510
 H          2.1417394975        2.9201913607        1.5640377784
 H         -0.1772161658        2.8364215501        2.4042825383
 H         -1.6147380426        0.9008786773        1.8836508033
 H         -1.2974168362       -1.7474072015        1.4086574251
 C         -0.4371672185       -2.3166812826       -0.4626492556
 C          0.5089699907       -3.3383698198        0.0911662344
 C         -0.8696521635       -3.7450318655       -0.3324593407
 H         -0.9815217468       -4.3337971817       -1.2304519811
 H         -1.5931258305       -3.9756049942        0.4358561743
 H          1.3509774526       -3.6400416575       -0.5143645395
 H          0.7286300146       -3.2946127758        1.1475179305
 H         -0.2487199368       -1.9400155866       -1.4625337191
