  62
        -98.94459904
 C         -1.6382575452       -1.4570424147        0.1952569277
 C         -1.8108421746       -0.3837656379        1.1091348719
 C         -3.0452881609        0.3966397573        0.9756956175
 C         -3.9162779977        0.0972491392       -0.0053369647
 C         -5.2442261239        0.7621575023       -0.2491075673
 C         -5.1622498180        2.0688928437       -1.0497568800
 C         -4.5902037021        3.2636715051       -0.2861306543
 H         -4.7918658555        4.1539090715       -0.8849870950
 H         -5.1237515930        3.3790609407        0.6578357113
 C         -3.0808300422        3.1778139748       -0.0204257608
 H         -2.6440461345        2.4231264815       -0.6790994996
 H         -2.6133168686        4.1341421610       -0.2655188095
 C         -2.7119374120        2.8498429640        1.4264069332
 H         -1.6231171612        2.7994473259        1.5085535630
 H         -3.0573641878        3.6519201455        2.0825087029
 C         -3.2852503750        1.5218923580        1.9375990784
 H         -4.3526989985        1.6256018659        2.1340411999
 H         -2.7814415283        1.2697003167        2.8742536417
 H         -4.5686217925        1.8915571899       -1.9493211667
 H         -6.1773529899        2.3197067035       -1.3658866431
 H         -5.7372475580        0.9504881699        0.7053650203
 H         -5.8464766192        0.0487990934       -0.8157760829
 O         -3.6876861706       -0.8979315551       -0.8991438519
 C         -2.5572108763       -1.7011599119       -0.8266230655
 O         -2.5124725401       -2.5683101138       -1.7200627524
 O         -0.9767364160       -0.1060737870        2.0131184661
 C         -0.4181186060       -2.3380590873        0.4040485093
 C          0.7230604849       -1.9665157015       -0.5118046622
 C          0.6341323586       -2.1157691968       -1.8922083424
 C          1.7073320110       -1.7869683684       -2.6995977492
 C          2.8789367035       -1.2913564229       -2.1531802204
 C          2.9749482391       -1.1319307995       -0.7765639489
 C          1.9020666527       -1.4795635329        0.0332386505
 H          1.9935505258       -1.3525325025        1.1014844939
 N          4.1491286827       -0.6312031466       -0.1861481105
 S          4.0235223303        0.6223935147        0.9196055036
 O          5.3672148393        1.1479253111        1.0235819992
 O          3.4327054541        0.1465961089        2.1425492599
 C          2.9730851571        1.8043026901        0.0967252446
 C          1.6025408620        1.7541593356        0.2540278966
 C          0.8184812335        2.6170607640       -0.4964972096
 C          1.4073496518        3.5114051066       -1.3759645997
 C          2.7865129779        3.5558054038       -1.5132202764
 C          3.5764563484        2.6887828433       -0.7775257913
 H          4.6521131382        2.6888671944       -0.8504130284
 H          3.2442232403        4.2561814633       -2.1930262262
 H          0.7859962718        4.1766969644       -1.9544141718
 H         -0.2536319747        2.5776746269       -0.3891632500
 H          1.1586567200        1.0598724466        0.9508608090
 H          4.8897350400       -0.4391565130       -0.8460638598
 H          3.7137421248       -1.0324778396       -2.7865820495
 H          1.6288723315       -1.9116217908       -3.7689669128
 H         -0.2849210409       -2.4833155314       -2.3220063268
 H         -0.0904979701       -2.1285903959        1.4322099086
 C         -0.7243925223       -3.8198399700        0.2969278598
 C          0.2040687039       -4.7982624829        0.9485500236
 C         -1.1635613037       -4.5686525434        1.5173417924
 H         -1.9075315676       -5.3431553920        1.4063165922
 H         -1.2446546610       -4.0158151611        2.4422604829
 H          0.4021208188       -5.7329084631        0.4468873685
 H          1.0509791894       -4.4007147677        1.4880754549
 H         -1.1728109040       -4.1016807607       -0.6464536014
