  62
        -98.93691124
 C         -0.8346360763       -1.4032986049       -0.5112875956
 C         -1.8341390799       -1.5910820045        0.4746923560
 C         -2.8739304302       -0.5527236530        0.6009206818
 C         -2.8164400810        0.5148198503       -0.2163836547
 C         -3.7865893082        1.6609746188       -0.3247542933
 C         -5.0868537998        1.2721054941       -1.0477830047
 C         -5.6820411778       -0.0702602256       -0.6314182969
 H         -4.9446908870       -0.8573806654       -0.7993733389
 H         -6.5304586226       -0.2760136433       -1.2896326947
 C         -6.1809880213       -0.1414054848        0.8096943832
 H         -6.6587269142       -1.1159369588        0.9398743741
 H         -6.9444892032        0.6245876052        0.9630147919
 C         -5.1121496892        0.0118284215        1.8937255783
 H         -5.5617826053       -0.3021468547        2.8402834084
 H         -4.8257361607        1.0524355062        2.0180444914
 C         -3.8730471208       -0.8547350872        1.6916693158
 H         -4.1827108829       -1.8949689275        1.5393083180
 H         -3.2959457582       -0.8617700847        2.6242505268
 H         -4.8752019690        1.2221286590       -2.1186647641
 H         -5.8212228564        2.0630215381       -0.8861490989
 H         -3.2876535483        2.4355435809       -0.9096259805
 H         -3.9976055679        2.0669657288        0.6598618133
 O         -1.8273734146        0.6650671354       -1.1402580480
 C         -0.8108304151       -0.2616144852       -1.3132604555
 O          0.0074892964        0.0583303483       -2.1938290576
 O         -1.8687983113       -2.6071244844        1.2217437158
 C          0.2231313861       -2.4872972052       -0.6106513373
 C          1.3532264131       -2.2227488384        0.3512756549
 C          1.8635488402       -3.2385914477        1.1513208800
 C          2.9062816519       -2.9868968499        2.0250743539
 C          3.4619096974       -1.7233246249        2.1109806093
 C          2.9527201024       -0.6980564131        1.3210269900
 C          1.9001157829       -0.9518917842        0.4538874262
 H          1.5122387509       -0.1554862086       -0.1618130439
 N          3.4649452139        0.6012871182        1.4145540010
 S          3.4495395198        1.6256845727        0.0929915781
 O          3.7499064399        0.9197542478       -1.1297778203
 O          4.3853452596        2.6722575322        0.4534319864
 C          1.8144739278        2.3252209095        0.0694313320
 C          1.2529145788        2.6799391704       -1.1399286973
 C          0.0152604025        3.3034866929       -1.1452047154
 C         -0.6344712092        3.5583013610        0.0515282968
 C         -0.0611347301        3.1858977121        1.2576541454
 C          1.1785006658        2.5685240617        1.2709065955
 H          1.6541252089        2.2675185361        2.1897870314
 H         -0.5755984793        3.3757951232        2.1860953478
 H         -1.5953394016        4.0486295729        0.0454516310
 H         -0.4376982615        3.5760665295       -2.0849324421
 H          1.7780829667        2.4434485546       -2.0513959738
 H          4.2926827183        0.7092103230        1.9815781798
 H          4.2783877751       -1.5255719425        2.7884166127
 H          3.2938570709       -3.7826922716        2.6427405630
 H          1.4286719394       -4.2255105394        1.0936574753
 H         -0.2798999618       -3.4091595491       -0.2754680939
 C          0.7154942773       -2.7344980137       -2.0286854903
 C          2.0093889720       -2.2057988254       -2.5622486049
 C          1.8612831287       -3.6696582513       -2.2822413185
 H          1.7971090844       -4.3513850784       -3.1168877070
 H          2.3809666722       -4.0676421920       -1.4237763203
 H          2.0226347744       -1.8688607852       -3.5878352644
 H          2.6329930461       -1.6067747376       -1.9159800909
 H         -0.1081058561       -2.7730422597       -2.7353600829
