  62
        -98.93124723
 C          1.6385686298        0.7590510900        0.5867158903
 C          2.8023839297        1.2347014006       -0.0664364195
 C          4.0734482398        0.6088913807        0.3430004603
 C          4.0695565800       -0.3437912397        1.2911455099
 C          5.2647424201       -1.1365904496        1.7385861296
 C          5.5856536204       -2.2318177491        0.7012960192
 C          6.9237257304       -2.0508273186       -0.0163392307
 H          7.7304697604       -2.3433182587        0.6590903892
 H          6.9359463205       -2.7415824283       -0.8622252709
 C          7.2264719401       -0.6371158683       -0.5224135201
 H          7.5789701899       -0.0192107386        0.3047502901
 H          8.0594727501       -0.7230675279       -1.2234476701
 C          6.0690689499        0.0894395517       -1.2195310699
 H          5.3553733501       -0.6271147283       -1.6269631002
 H          6.4781643298        0.6463741621       -2.0649178996
 C          5.3226717597        1.1036908112       -0.3325219795
 H          6.0082775296        1.5077164111        0.4171735907
 H          4.9903723295        1.9369673614       -0.9586451592
 H          4.7770285204       -2.2549001890       -0.0326555008
 H          5.5899573506       -3.2067927493        1.1912823489
 H          5.0152882702       -1.5856820400        2.7001786495
 H          6.1171937300       -0.4745153995        1.8730712599
 O          2.9341835001       -0.7584722702        1.9127400197
 C          1.7026931100       -0.2218391303        1.5800240699
 O          0.7501070400       -0.6841176808        2.2411917797
 O          2.8038733495        2.1310034309       -0.9478922991
 C          0.2420383897        1.2719113699        0.2748813805
 C         -0.3564994802        0.5306522502       -0.8937619998
 C          0.3244950499        0.4033076508       -2.1007152599
 C         -0.2484050999       -0.2816144889       -3.1564345201
 C         -1.5017463298       -0.8543360692       -3.0300428104
 C         -2.1917579199       -0.7332834498       -1.8292586104
 C         -1.6166115200       -0.0375072601       -0.7742976601
 H         -2.1458557601        0.0377065394        0.1623900299
 N         -3.4782807898       -1.2680329702       -1.6906452306
 S         -4.0340632997       -1.8571249209       -0.2266303808
 O         -2.9876460195       -2.5085122909        0.5244477489
 O         -5.1676165995       -2.6810602410       -0.5896790412
 C         -4.6220694300       -0.4065421713        0.6207796297
 C         -4.1377091901       -0.0958473917        1.8758781098
 C         -4.6099906503        1.0415248480        2.5126929503
 C         -5.5540613505        1.8415022880        1.8874182606
 C         -6.0342987904        1.5122270284        0.6286340204
 C         -5.5661108301        0.3772970087       -0.0133202600
 H         -5.9159237401        0.0849877190       -0.9892430201
 H         -6.7684193205        2.1372671084        0.1463711606
 H         -5.9160116707        2.7269930377        2.3855831709
 H         -4.2344505704        1.2980423677        3.4905127504
 H         -3.3942558900       -0.7382843117        2.3235249796
 H         -3.8022175096       -1.8181818999       -2.4722457708
 H         -1.9444062897       -1.3926772990       -3.8542904106
 H          0.2890343801       -0.3746103784       -4.0882783702
 H          1.3012728498        0.8502003211       -2.2030261897
 H         -0.3569964203        1.0174065494        1.1638098304
 C          0.1802913393        2.7855319099        0.1122482110
 C         -0.1039392308        3.4722309304       -1.1861179787
 C         -1.1454635708        3.4519627297       -0.1106819487
 H         -1.3625261210        4.3649102095        0.4223990616
 H         -2.0014032907        2.8095200396       -0.2569612490
 H          0.4218723890        4.3931067206       -1.3866425783
 H         -0.2630451906        2.8642070507       -2.0621561089
 H          0.8724543692        3.2889133998        0.7794906713
