  62
        -98.94322595
 C         -1.8627663993       -1.1689517604        0.3220291999
 C         -2.4123080991       -0.1713539311        1.1685391509
 C         -3.8160981792        0.1802449190        0.9306993016
 C         -4.5076940094       -0.4553977203       -0.0322759287
 C         -5.9544990495       -0.2324186301       -0.3800333881
 C         -6.1929575999        0.9459727407       -1.3338007071
 C         -6.0112276198        2.3316270602       -0.7130832760
 H         -6.4169725100        3.0562848307       -1.4218050553
 H         -6.6046952995        2.4011373394        0.1990759842
 C         -4.5528444797        2.7032347600       -0.4097160061
 H         -3.8836292599        2.0404256705       -0.9635799368
 H         -4.3550497199        3.7193295503       -0.7586912653
 C         -4.1798895993        2.6547004588        1.0722483537
 H         -3.1183333393        2.8995207288        1.1662885437
 H         -4.7484144192        3.4108962183        1.6184284445
 C         -4.4128621190        1.2924530783        1.7389092127
 H         -5.4793041190        1.1247431981        1.8890601428
 H         -3.9180351188        1.2988023775        2.7133286726
 H         -5.5255086701        0.8412181714       -2.1922272474
 H         -7.2195092500        0.8671150609       -1.6988645469
 H         -6.3004861796       -1.1459013997       -0.8683464988
 H         -6.5321078093       -0.0857958209        0.5330312921
 O         -3.9534954596       -1.4213448096       -0.8082529097
 C         -2.6208240995       -1.7889029896       -0.6720510804
 O         -2.2650985197       -2.6694633989       -1.4772986912
 O         -1.7620096789        0.3906478281        2.0907995612
 C         -0.4017287992       -1.5331162205        0.5338945592
 C          0.4440623404       -0.9100521595       -0.5507232805
 C          0.5861841401       -1.4897023385       -1.8075095210
 C          1.3416625298       -0.8665905276       -2.7837308207
 C          1.9873427498        0.3293313822       -2.5233126199
 C          1.8523319201        0.9171415911       -1.2718018094
 C          1.0803730204        0.2985189803       -0.2983465497
 H          0.9690295607        0.7775639795        0.6635552608
 N          2.5047843501        2.1281228309       -0.9699806286
 S          3.4726626605        2.1662250999        0.3971242112
 O          2.6604289709        2.1972238788        1.5853946015
 O          4.3523487704        3.2963672201        0.1933565819
 C          4.3978047906        0.6440384300        0.3089498597
 C          3.9778124809       -0.4563871906        1.0279511389
 C          4.6618845409       -1.6527254305        0.8794894777
 C          5.7448516107       -1.7278625997        0.0175736174
 C          6.1576231604       -0.6118646791       -0.6943488118
 C          5.4760321504        0.5856080308       -0.5525550707
 H          5.7695296502        1.4790026512       -1.0797053100
 H          7.0034664002       -0.6727986085       -1.3599191921
 H          6.2708568307       -2.6623813195       -0.0968464836
 H          4.3448044411       -2.5221287509        1.4332546871
 H          3.1328165810       -0.3547627912        1.6898833192
 H          3.0012604999        2.5274241716       -1.7542999884
 H          2.5832044896        0.8104778428       -3.2841823697
 H          1.4357732996       -1.3224344268       -3.7575665911
 H          0.0725708401       -2.4118345283       -2.0250533616
 H         -0.1281904790       -1.0530079213        1.4837211096
 C         -0.1770435691       -3.0251756506        0.6679357779
 C          1.0795831811       -3.5111254510        1.3229013272
 C         -0.2353490587       -3.6506484617        2.0279606774
 H         -0.6710792386       -4.6338751518        2.1233759568
 H         -0.4366983785       -3.0021901724        2.8685680880
 H          1.5533085411       -4.3996670407        0.9356463463
 H          1.7673372112       -2.7629176913        1.6866311276
 H         -0.5767681593       -3.6016199499       -0.1555774524
