  62
        -98.94548247
 C         -1.7700157301       -1.4276261174        0.2021886309
 C         -1.5455515383       -0.0966010385       -0.2265692145
 C         -2.5540389500        0.8867061799        0.1966901351
 C         -3.5892563621        0.4877167413        0.9575841294
 C         -4.7130827600        1.3738267854        1.4095378156
 C         -5.8736472448        1.3564137117        0.4047964412
 C         -5.4403547669        1.5846991511       -1.0433268953
 H         -4.8290066804        0.7401312221       -1.3693909450
 H         -6.3438518810        1.5825155850       -1.6570624747
 C         -4.6664927455        2.8898407821       -1.2759167305
 H         -4.8323926837        3.5721408141       -0.4414994326
 H         -5.0588283361        3.3740070614       -2.1727834808
 C         -3.1629116979        2.7052834763       -1.4894797799
 H         -2.9938802705        1.9535034023       -2.2643793234
 H         -2.7548536759        3.6509395315       -1.8558480199
 C         -2.3553493371        2.3084090160       -0.2472257688
 H         -1.2944868453        2.3903480160       -0.4990877777
 H         -2.5738042182        2.9997589951        0.5689125678
 H         -6.3694641924        0.3847042293        0.4646861103
 H         -6.5940971238        2.1229220941        0.6962596445
 H         -4.3415719565        2.3891455258        1.5330078486
 H         -5.0733396230        1.0085364070        2.3727165596
 O         -3.7560437602       -0.7955839987        1.3691994840
 C         -2.8555969158       -1.7817381143        1.0043070283
 O         -3.1234182912       -2.9154403161        1.4513584111
 O         -0.5632317552        0.2571934307       -0.9284495153
 C         -0.7900798439       -2.5271213880       -0.1733601286
 C          0.5614221673       -2.1633463871        0.3893568905
 C          0.7267233367       -2.1565244307        1.7719940017
 C          1.9255900929       -1.7690874530        2.3388896706
 C          2.9821779430       -1.3667721012        1.5397478168
 C          2.8230959399       -1.3605371745        0.1611603383
 C          1.6236279448       -1.7705106683       -0.4073665884
 H          1.5173554305       -1.7566601245       -1.4801635399
 N          3.8839549132       -0.9377571145       -0.6619133338
 S          4.6127769564        0.5289883225       -0.3147419014
 O          5.3065569913        0.8977133184       -1.5284218292
 O          5.4329803951        0.3841253057        0.8622938041
 C          3.2825680432        1.6714854189        0.0063190739
 C          2.9427593351        1.9796067028        1.3075338370
 C          1.8872105358        2.8476206498        1.5345147441
 C          1.1957249045        3.3901814954        0.4631154532
 C          1.5486797887        3.0690429781       -0.8382871193
 C          2.5987015539        2.1974547538       -1.0710763322
 H          2.9056895206        1.9307225943       -2.0695885463
 H          1.0061035892        3.4884211489       -1.6704331411
 H          0.3763677405        4.0684324686        0.6438501746
 H          1.6065198571        3.0971367317        2.5453450622
 H          3.5117399569        1.5466304149        2.1137112508
 H          3.6650088449       -0.9861710909       -1.6468016759
 H          3.9227742842       -1.0543655424        1.9633502622
 H          2.0398024155       -1.7753028885        3.4123891511
 H         -0.1058241827       -2.4529942005        2.3958840479
 H         -1.1417268092       -3.4359820012        0.3335192158
 C         -0.7972423238       -2.7679673335       -1.6680044832
 C         -0.2533330785       -4.0520459602       -2.2163932520
 C         -1.7293652623       -3.7934176501       -2.2363689004
 H         -2.2049306837       -3.5890339385       -3.1840399451
 H         -2.3555887315       -4.3361866357       -1.5433114989
 H          0.2837165469       -4.0296867612       -3.1526178789
 H          0.1254100953       -4.7747540497       -1.5095965398
 H         -0.6483693249       -1.8624846658       -2.2444311552
