  62
        -98.93914796
 C         -1.8843813405       -0.8587501711       -0.1831106294
 C         -2.4828439403       -0.2231857011        0.9278835507
 C         -3.5968693702        0.6985745191        0.6437783310
 C         -3.9656458803        0.9122036692       -0.6333822190
 C         -5.0235914903        1.8183219394       -1.2285153587
 C         -6.0901590901        2.4612694395       -0.3459895685
 C         -7.0981972901        1.4810078196        0.2535477315
 H         -7.7300861503        1.0983411697       -0.5518922384
 H         -7.7393018399        2.0304902496        0.9462752417
 C         -6.4981372802        0.2786143694        0.9778406713
 H         -5.9262489604       -0.3268673506        0.2717867612
 H         -7.3239900002       -0.3409123305        1.3378030014
 C         -5.6124912200        0.6128307192        2.1762797612
 H         -5.3814455800       -0.3259832209        2.6868060111
 H         -6.1625610898        1.2462242392        2.8749797314
 C         -4.2767082999        1.2982062990        1.8413094411
 H         -3.5985528398        1.1461553489        2.6863200810
 H         -4.4035895998        2.3709326091        1.7155744712
 H         -6.6445066001        3.1551141096       -0.9838964084
 H         -5.6249055699        3.0568715194        0.4339821214
 H         -5.5139575605        1.2293173395       -2.0102073087
 H         -4.4742732502        2.6140286194       -1.7441195888
 O         -3.3277589306        0.3059626692       -1.6776052391
 C         -2.2869297706       -0.5891951010       -1.4898493093
 O         -1.8199920109       -1.0605103409       -2.5428577594
 O         -2.0946203401       -0.4065160413        2.1140806207
 C         -0.7435578306       -1.8330161613        0.0499810303
 C          0.5159438394       -1.3029297114       -0.5899308698
 C          1.2981542892       -2.0325790415       -1.4742367800
 C          2.4312379091       -1.4687115716       -2.0365778401
 C          2.8148440494       -0.1788453816       -1.7219088700
 C          2.0516404896        0.5520363184       -0.8188590699
 C          0.9175359396       -0.0138141815       -0.2581318197
 H          0.3198022098        0.5588031585        0.4403192804
 N          2.4421079298        1.8564957683       -0.4752178598
 S          4.0637565099        2.1518449181       -0.1909801500
 O          4.0888327502        3.2812312680        0.7120038601
 O          4.7514118098        2.3356559081       -1.4448782801
 C          4.6759292698        0.6866530079        0.6230692498
 C          5.6860562696       -0.0533841222        0.0432779696
 C          6.1264638996       -1.2021516823        0.6810810094
 C          5.5492934097       -1.5906058423        1.8798233695
 C          4.5376841799       -0.8341509822        2.4519243497
 C          4.0947625599        0.3160715479        1.8196817998
 H          3.3129350901        0.9274692480        2.2415444200
 H          4.0897526100       -1.1368705723        3.3848561597
 H          5.8890461496       -2.4873959924        2.3733418193
 H          6.9142116894       -1.7909602824        0.2396484093
 H          6.1049814596        0.2836756878       -0.8908568305
 H          1.8561771300        2.2941959883        0.2197446303
 H          3.6820386594        0.2794137383       -2.1687465001
 H          3.0218815290       -2.0417177216       -2.7347097702
 H          1.0148897590       -3.0383740114       -1.7356964000
 H         -0.5913425005       -1.8458279014        1.1393474503
 C         -1.1254369909       -3.2250689012       -0.4047423797
 C         -0.4779166709       -4.4235177313        0.2202548201
 C         -1.9087575609       -4.1004355212        0.5255679303
 H         -2.6821458910       -4.7301843110        0.1119648104
 H         -2.1484811007       -3.7004909612        1.5001027804
 H         -0.2692761812       -5.2803550713       -0.4021919000
 H          0.2563447392       -4.2484652515        0.9916788000
 H         -1.3763700910       -3.2661422011       -1.4585526897
