  62
        -98.94177637
 C          0.7758751754        1.3876137484        0.5157243882
 C          1.2922976809        0.8746766109       -0.7009747085
 C          2.3621660697       -0.1306161548       -0.5645622322
 C          2.7682903835       -0.5132951411        0.6582641301
 C          3.9170662093       -1.4406864382        0.9325635990
 C          5.2342153923       -0.6629461013        1.0699907033
 C          5.4903828361        0.3328794948       -0.0611193820
 H          4.7401846031        1.1256647177       -0.0164493858
 H          6.4602870374        0.7976538717        0.1286899120
 C          5.4872805979       -0.2857813314       -1.4660503015
 H          6.3400591538        0.1060496888       -2.0244465152
 H          5.6154912567       -1.3665945543       -1.3963270681
 C          4.2359914314        0.0222702063       -2.2906871753
 H          4.4244796137       -0.2805628840       -3.3242887337
 H          4.0541125774        1.1000267439       -2.2950472827
 C          2.9509081305       -0.6794959279       -1.8336680531
 H          2.1926228505       -0.5249981263       -2.6081242234
 H          3.1318946509       -1.7530285245       -1.7431587924
 H          5.2123802681       -0.1105220010        2.0120441784
 H          6.0549021424       -1.3811168127        1.1157948405
 H          3.7238151437       -1.9655378391        1.8695232002
 H          3.9975374315       -2.1658596655        0.1246036868
 O          2.2043374941       -0.0469248140        1.8009043958
 C          1.2042566219        0.9080038778        1.7564910762
 O          0.7847756491        1.2600345863        2.8768766853
 H         -1.3286082853        0.4696835735       -0.9290540417
 C         -2.0411985398        0.8764456323       -0.2277935666
 C         -1.6726852770        1.9126591229        0.6188504952
 C         -2.6187790495        2.4287087897        1.4980727775
 C         -3.9087599842        1.9307428767        1.5180765586
 C         -4.2729703624        0.8960332510        0.6760677734
 C         -3.3308894127        0.3637814608       -0.1974106518
 N         -3.6707867890       -0.6963099040       -1.0489805215
 S         -2.5442977763       -1.8705445885       -1.4139098439
 O         -1.6722949418       -1.4303589229       -2.4714087793
 O         -3.3443739625       -3.0405156485       -1.7165031763
 C         -1.6122969543       -2.1740383483        0.0781152828
 C         -0.2612022902       -2.4271442194       -0.0334281766
 C          0.4583430939       -2.7521802459        1.1051391063
 C         -0.1769329959       -2.7928565664        2.3354204836
 C         -1.5337220532       -2.5272929958        2.4333180254
 C         -2.2637115954       -2.2288976678        1.2945657433
 H         -3.3229239210       -2.0378396762        1.3477047262
 H         -2.0247745774       -2.5557222340        3.3925913670
 H          0.3894232349       -3.0306497705        3.2219355836
 H          1.5111902079       -2.9681295255        1.0264649078
 H          0.2026279061       -2.3570184003       -1.0048747160
 H         -4.5905598484       -1.0872467198       -0.9063987757
 H         -5.2766387470        0.4996423281        0.6916841124
 H         -4.6348559386        2.3440548160        2.2009922921
 H         -2.3318125721        3.2189089318        2.1758508238
 C         -0.2774893010        2.4807744378        0.5848578691
 H         -0.1095723276        2.9807288088        1.5529093087
 C         -0.1100684078        3.5391600320       -0.4980982021
 C         -1.0057149548        3.6482633827       -1.6911465177
 C         -1.0835871513        4.6757894285       -0.6046386520
 H         -0.7000301095        5.6657642137       -0.8000725205
 H         -1.9497808045        4.6549215612        0.0388768620
 H         -0.5519782939        3.9129612342       -2.6340531577
 H         -1.8118172061        2.9376673464       -1.7888108012
 H          0.9354643608        3.7803313429       -0.6628564139
 O          0.9148906194        1.2326398070       -1.8449510296
