  62
        -98.93756029
 C          1.7510002317        0.3946399492        0.3999730393
 C          2.9316956261        0.4135373073        1.1743715252
 C          4.2076536615        0.5425213314        0.4435026244
 C          4.1756856929        0.6397034458       -0.8989455125
 C          5.3374994875        0.7387247650       -1.8514133857
 C          6.0475973592       -0.6086421523       -2.0615916610
 C          6.2847134095       -1.4165587090       -0.7882922251
 H          6.6852494000       -2.3903647530       -1.0824693882
 H          5.3278888699       -1.5966920087       -0.2947435898
 C          7.2599435364       -0.7924954930        0.2070276249
 H          8.2285482964       -0.6552015224       -0.2789713322
 H          7.3960603798       -1.5094265842        1.0209223495
 C          6.8297877721        0.5428237323        0.8176610248
 H          6.9771866473        1.3597505074        0.1165162105
 H          7.4909594701        0.7399072330        1.6667088783
 C          5.4051462326        0.5659270719        1.3629071606
 H          5.2838721780        1.4637186945        1.9812617385
 H          5.2718570773       -0.2760704543        2.0519672390
 H          7.0003529828       -0.4228949138       -2.5602175256
 H          5.4296934792       -1.2146718339       -2.7286577669
 H          6.0362001134        1.4966024931       -1.5099197123
 H          4.9298095924        1.0691560341       -2.8092303343
 O          3.0088493947        0.6174454263       -1.6049603774
 C          1.7768140262        0.4934594627       -0.9905216123
 O          0.8063020142        0.4871101981       -1.7705613450
 O          2.9291710485        0.3160130854        2.4323944052
 C          0.4106019602        0.2602813305        1.0974354320
 C         -0.3189934388       -0.9637340937        0.6027557437
 C          0.3714522132       -2.1699002906        0.5084012387
 C         -0.2578386821       -3.3111382097        0.0527825197
 C         -1.5947498149       -3.2794521598       -0.3041804674
 C         -2.2970713931       -2.0857813510       -0.2018070624
 C         -1.6583978166       -0.9377570965        0.2488540144
 H         -2.2213842256       -0.0228541588        0.3225530018
 N         -3.6462768799       -2.0162098960       -0.5740552544
 S         -4.7178677009       -1.0622566749        0.2812008386
 O         -4.4075316076       -1.0415210422        1.6916786215
 O         -6.0232355021       -1.5810270870       -0.0697120449
 C         -4.5451888973        0.5689578382       -0.4105873889
 C         -4.7047515948        1.6610927201        0.4193752446
 C         -4.6164763321        2.9342510047       -0.1214520834
 C         -4.3719659424        3.0919173682       -1.4767909156
 C         -4.2165832690        1.9847696396       -2.2969040345
 C         -4.3074628440        0.7091216799       -1.7632623702
 H         -4.1851046417       -0.1706730383       -2.3725694168
 H         -4.0214051330        2.1109925574       -3.3497315304
 H         -4.2998301092        4.0832452184       -1.8957878206
 H         -4.7364590278        3.7967444288        0.5149884732
 H         -4.8826907338        1.4916898220        1.4696027489
 H         -4.0607379791       -2.8906017105       -0.8607876634
 H         -2.0885770159       -4.1702078791       -0.6618448515
 H          0.2937745310       -4.2364510318       -0.0211292247
 H          1.4147347280       -2.1975199596        0.7926158644
 H          0.6467897427        0.1087373466        2.1617308349
 C         -0.3838038888        1.5413543277        0.9529565653
 C         -1.3769889632        1.9406375769        2.0016166610
 C         -0.0833825828        2.6856410636        1.8723181813
 H         -0.1026790585        3.6878502835        1.4717536645
 H          0.6767057689        2.5298305524        2.6240225816
 H         -2.2847939253        2.4322377813        1.6862733317
 H         -1.5063028686        1.2803454568        2.8461432180
 H         -0.6098255426        1.7751480980       -0.0816693512
