  62
        -98.94027064
 C          2.0111751900        0.1056740314       -0.4817910406
 C          2.8131456202       -0.5488224417        0.4862268020
 C          4.1417570003        0.0409522199        0.7127638069
 C          4.5053809238        1.1606779807        0.0640353605
 C          5.8112570401        1.8919850765        0.2178908685
 C          6.9509727218        1.3209212024       -0.6369384819
 C          7.5148243204       -0.0179744766       -0.1592186468
 H          8.4402890636       -0.1910034413       -0.7121652676
 H          7.7760980508        0.0554974839        0.8969301423
 C          6.5781039623       -1.2142424973       -0.3782320677
 H          5.8074207146       -0.9443367221       -1.1040300979
 H          7.1433304107       -2.0453177562       -0.8061914378
 C          5.9028096658       -1.7314789665        0.8920166527
 H          5.2359969848       -2.5521827635        0.6158019700
 H          6.6591132303       -2.1272599752        1.5734372201
 C          5.0740932747       -0.6790506965        1.6400451060
 H          4.4666015260       -1.1909945734        2.3902605733
 H          5.7313640625        0.0283439882        2.1451246374
 H          6.5993051165        1.2221168996       -1.6666225600
 H          7.7606854978        2.0543304173       -0.6319926362
 H          5.6286633913        2.9222563508       -0.0954173599
 H          6.1084175781        1.8959665133        1.2670387069
 O          3.6867951608        1.7875034803       -0.8231646597
 C          2.4416344348        1.2668085786       -1.1296307250
 O          1.8126123104        1.9193968923       -1.9882539188
 O          2.4610908398       -1.5641986565        1.1371364754
 C          0.6274867776       -0.3792935746       -0.8824153253
 C         -0.4246301424        0.2163618168        0.0164088900
 C         -0.3342016884        0.1095700496        1.4007740723
 C         -1.3125712941        0.6545043391        2.2121990896
 C         -2.4016901442        1.3085388312        1.6626688269
 C         -2.5034469152        1.4155519024        0.2825459327
 C         -1.5179894077        0.8713079067       -0.5307709904
 H         -1.5946271959        0.9726678773       -1.6050641144
 N         -3.6326919519        2.0484310416       -0.2777568120
 S         -5.1076289222        1.3356259588        0.0921745735
 O         -6.0207081425        1.7788807715       -0.9363400693
 O         -5.4660384970        1.6624220329        1.4483140785
 C         -4.7837644799       -0.4113720522       -0.0584347361
 C         -4.7661044136       -0.9657255900       -1.3231291355
 C         -4.4156812751       -2.2983566307       -1.4663563091
 C         -4.0760845726       -3.0462297947       -0.3491555262
 C         -4.1008791419       -2.4754424990        0.9135154727
 C         -4.4577471941       -1.1449449383        1.0644481987
 H         -4.4924225669       -0.6663115305        2.0290458951
 H         -3.8365830747       -3.0600933632        1.7798652801
 H         -3.7869392940       -4.0785058660       -0.4641536512
 H         -4.3989018773       -2.7468456189       -2.4467787194
 H         -5.0373305323       -0.3508712945       -2.1666876641
 H         -3.5583316782        2.1833027694       -1.2763179814
 H         -3.1779509997        1.7321185644        2.2794235859
 H         -1.2278317889        0.5679025912        3.2848922361
 H          0.5077367981       -0.4114223280        1.8303365972
 H          0.4660455262        0.0274189164       -1.8932594568
 C          0.5278284318       -1.8964793682       -0.9827370004
 C         -0.3447753942       -2.7316699086       -0.0989172572
 C         -0.7212195043       -2.5200914406       -1.5321547677
 H         -0.6278249835       -3.3429062537       -2.2242178341
 H         -1.5542172530       -1.8629126055       -1.7337360539
 H          0.0345491374       -3.6952024500        0.2044422185
 H         -0.9326767800       -2.2366161621        0.6576787269
 H          1.4678441697       -2.3437972954       -1.2877039091
