  62
        -98.93653247
 C          1.8364454454        0.7633818831        0.7478524348
 C          2.8123098738        1.1160881545       -0.2149685383
 C          4.1564182587        0.5390839339       -0.0246029239
 C          4.3949912752       -0.2650807516        1.0241389600
 C          5.6882429239       -0.9286175463        1.4269539498
 C          6.5345121035       -1.5659496311        0.3162053477
 C          5.7332545437       -2.1625947490       -0.8501426243
 H          6.0741764811       -3.1843321400       -1.0279773907
 H          4.6743981286       -2.2143473176       -0.5899508908
 C          5.9013841186       -1.3779768298       -2.1536367693
 H          6.9552738184       -1.1160222304       -2.2704803265
 H          5.6311551152       -2.0267237789       -2.9903338077
 C          5.0544717543       -0.1114499970       -2.2708971061
 H          4.0006089907       -0.3803710347       -2.3829237091
 H          5.3516833218        0.4079583205       -3.1850060014
 C          5.1623487672        0.8675954386       -1.0903915889
 H          6.1738657065        0.8975884862       -0.6933247469
 H          4.9008747256        1.8642171136       -1.4556313288
 H          7.2359729422       -0.8304640898       -0.0751768714
 H          7.1314795758       -2.3495014208        0.7861011588
 H          6.2957851178       -0.1926173616        1.9617183624
 H          5.3996175574       -1.6937100566        2.1518515567
 O          3.4280125275       -0.5701866780        1.9362842344
 C          2.1415143096       -0.0779526655        1.8204970118
 O          1.3710924121       -0.4487511113        2.7302904360
 H         -1.3853688042       -0.7219990581        1.1145245448
 C         -1.2501589203       -0.5237897501        0.0612606573
 C         -0.3672284539        0.4644900296       -0.3527012986
 C         -0.1914200139        0.6747881835       -1.7170081558
 C         -0.8812173911       -0.0918173384       -2.6377822936
 C         -1.7720397447       -1.0655767409       -2.2213709912
 C         -1.9540590017       -1.2852845902       -0.8617595007
 N         -2.8534580464       -2.2677861085       -0.4059775182
 S         -4.0136354031       -1.8162612356        0.7136218604
 O         -3.4105620137       -1.6042971046        2.0039276477
 O         -5.0191425563       -2.8532700389        0.6381319708
 C         -4.6599737843       -0.2857572729        0.0658413829
 C         -5.5927471190       -0.3461465099       -0.9512938605
 C         -6.0413654088        0.8342742130       -1.5205865914
 C         -5.5432181460        2.0484943239       -1.0728008849
 C         -4.6080194197        2.0925380201       -0.0505874394
 C         -4.1594672618        0.9148870728        0.5263141740
 H         -3.4368546892        0.9047624012        1.3262486720
 H         -4.2216971007        3.0373187583        0.2971257600
 H         -5.8868383355        2.9674523784       -1.5206440768
 H         -6.7725462929        0.8044308106       -2.3122086207
 H         -5.9595144672       -1.3104857928       -1.2637904493
 H         -3.2806547137       -2.8040006206       -1.1482014687
 H         -2.3141588989       -1.6601242257       -2.9411606767
 H         -0.7287366614        0.0753418744       -3.6931630273
 H          0.5152282210        1.4188597693       -2.0480112163
 C          0.3972618157        1.2544676624        0.6830463835
 H         -0.0352089190        1.0190283712        1.6652435776
 C          0.2929639985        2.7499082330        0.4602812005
 C         -0.9554481349        3.4613013089        0.8826938439
 C          0.3182663003        3.6648532245        1.6458659429
 H          0.8320764557        4.6101343862        1.5560265026
 H          0.4058102420        3.2132946191        2.6240169777
 H         -1.3205757436        4.2694126433        0.2680988321
 H         -1.7302917453        2.8718193846        1.3491843688
 H          0.7928449659        3.0920740958       -0.4353573775
 O          2.6026997677        1.8835613301       -1.1893148687
