  62
        -98.94172752
 C         -1.7179008353       -0.1511507565        0.4242563836
 C         -2.8261848808       -0.9006375984        0.8975578771
 C         -4.1420421226       -0.2579701319        0.7890349760
 C         -4.2209705023        0.9959192429        0.3087678038
 C         -5.4991888116        1.7506053186        0.0881130960
 C         -6.0376364906        1.5254651486       -1.3318206396
 C         -6.0960822248        0.0547474056       -1.7452056804
 H         -6.5189398854        0.0167507229       -2.7514951164
 H         -5.0785376953       -0.3375975037       -1.8108015447
 C         -6.9237771358       -0.8362989656       -0.8083782523
 H         -7.5807139275       -0.2186149071       -0.1949873527
 H         -7.5606689046       -1.4842436451       -1.4142681006
 C         -6.0940232091       -1.7479754599        0.0975928404
 H         -5.3706809000       -2.3029336478       -0.5053500323
 H         -6.7677248368       -2.4783222914        0.5534099304
 C         -5.3391940914       -1.0491580064        1.2354087521
 H         -6.0283655641       -0.4191566204        1.8013240545
 H         -4.9530997979       -1.8243238029        1.9037872350
 H         -7.0354856769        1.9631820590       -1.3960953517
 H         -5.3893647878        2.0531473888       -2.0354681028
 H         -6.2358996405        1.4302400468        0.8223399336
 H         -5.2990838082        2.8143671779        0.2270545972
 O         -3.1324634507        1.7084369507       -0.0744985539
 C         -1.8544139336        1.1595456638       -0.0360463172
 O         -0.9654878589        1.9394215613       -0.4238744666
 H          1.8071297624        0.4252375964       -0.7108461236
 C          1.7180459496        0.6440309881        0.3393269773
 C          0.6683390983        0.1266423158        1.0805603207
 C          0.5535907433        0.4899521965        2.4202673228
 C          1.4615753436        1.3553273818        2.9978547292
 C          2.5176756505        1.8592790160        2.2584447071
 C          2.6395370648        1.5048254899        0.9208140222
 N          3.6968903668        1.9975687820        0.1455351042
 S          4.3675046104        1.0650276245       -1.0616358859
 O          5.7140178096        1.5787096215       -1.2038298949
 O          3.5583373550        1.1009833563       -2.2534721071
 C          4.4193597604       -0.5966870322       -0.4104122600
 C          5.0307788465       -0.8109829333        0.8091068884
 C          5.0692262260       -2.0967627574        1.3232192714
 C          4.5021235607       -3.1430354782        0.6117953963
 C          3.9006238208       -2.9138930092       -0.6157004206
 C          3.8567116479       -1.6287330167       -1.1327665266
 H          3.3927823558       -1.4043484148       -2.0801685177
 H          3.4621691385       -3.7289077938       -1.1696417331
 H          4.5297623803       -4.1431133291        1.0147486435
 H          5.5388941631       -2.2791705040        2.2762502185
 H          5.4699578104        0.0205669748        1.3354087249
 H          4.3835772906        2.5448396387        0.6416995868
 H          3.2308226286        2.5338337986        2.7071999860
 H          1.3537447245        1.6352875476        4.0348958128
 H         -0.2690702146        0.0929217824        2.9992599632
 C         -0.3528158975       -0.8123051992        0.4930004647
 H         -0.4925795934       -1.6454750868        1.2020693007
 C          0.1051360198       -1.4338048024       -0.8177578224
 C         -0.8801215319       -1.9972152670       -1.7961099803
 C         -0.1021601039       -0.7645771489       -2.1418645761
 H          0.6820184960       -0.8339455754       -2.8823995251
 H         -0.6130713186        0.1858338780       -2.1495205210
 H         -1.9303391068       -1.8884395887       -1.5671284228
 H         -0.6362650624       -2.9204995470       -2.2994418403
 H          1.0318451526       -1.9864433104       -0.6946226204
 O         -2.7174353049       -2.0541535244        1.3918121901
