  62
        -98.93847043
 C         -1.5724579930       -1.5284630768        0.5421434697
 C         -2.4987364780       -1.1036554752       -0.4396024328
 C         -3.3275281733        0.0674608972       -0.0924549215
 C         -3.0998932061        0.7327679453        1.0541072745
 C         -3.7913553773        1.9364010839        1.6587425799
 C         -4.6572085948        2.8547643746        0.7990475760
 C         -3.9069608744        3.6104874699       -0.2961875832
 H         -4.6380168483        4.1829431935       -0.8715769808
 H         -3.2252820773        4.3227896957        0.1756663894
 C         -3.0903927182        2.7452099837       -1.2535910279
 H         -2.6516767373        3.4037935344       -2.0079691778
 H         -2.2662247776        2.2738097566       -0.7152128026
 C         -3.8748691428        1.6596829166       -1.9879206118
 H         -3.2200722134        1.2519997413       -2.7622609636
 H         -4.7440080147        2.0991000256       -2.4810369655
 C         -4.3450351858        0.4806859981       -1.1164321588
 H         -4.4929467416       -0.3825356989       -1.7713058946
 H         -5.2978325201        0.6942991952       -0.6373124284
 H         -5.0871898016        3.5970952497        1.4772669403
 H         -5.4883353130        2.3011385896        0.3722887304
 H         -4.4090146748        1.5487313233        2.4767624591
 H         -2.9995826487        2.5295632186        2.1271831914
 O         -2.1356249637        0.3321388966        1.9347436937
 C         -1.3694808453       -0.7953283580        1.7134036870
 O         -0.5442694336       -1.0362446079        2.6183248277
 O         -2.6573126000       -1.6611333320       -1.5556574612
 C         -0.6441065618       -2.7211275142        0.3535307536
 C          0.5745097195       -2.1995170833       -0.3677004877
 C          0.5874641701       -1.9629175178       -1.7380045306
 C          1.6879860544       -1.3731736523       -2.3343699520
 C          2.7881145169       -0.9974964684       -1.5821863766
 C          2.7799439066       -1.2272434158       -0.2130472431
 C          1.6841396357       -1.8345801466        0.3817129185
 H          1.6712193639       -1.9888913987        1.4522994573
 N          3.8751621417       -0.8138552293        0.5705310832
 S          4.3597983125        0.7756376613        0.3726365272
 O          5.2387694905        0.8687283718       -0.7665641632
 O          4.9364329554        1.1644741787        1.6407645421
 C          2.8720371604        1.7112723887        0.0520972756
 C          2.8194081740        2.5346417689       -1.0543372911
 C          1.6721153369        3.2754540535       -1.2873024168
 C          0.5977992986        3.1761406496       -0.4171564168
 C          0.6618752522        2.3369497440        0.6843067608
 C          1.8093850007        1.5997178295        0.9270119486
 H          1.8709311909        0.9450572404        1.7823485702
 H         -0.1760659006        2.2417342805        1.3578700625
 H         -0.2947725894        3.7541774338       -0.5973247738
 H          1.6172799728        3.9260087215       -2.1451129248
 H          3.6756829802        2.5766663049       -1.7076798224
 H          3.7662145102       -1.0273388946        1.5519307833
 H          3.6458554201       -0.5217799835       -2.0299280158
 H          1.6862042681       -1.1922862801       -3.3984076733
 H         -0.2827267855       -2.2124730692       -2.3242857704
 H         -0.3305610082       -3.0191491920        1.3633187768
 C         -1.2805941589       -3.9172059851       -0.3183160793
 C         -0.5923069317       -5.2443973615       -0.2185977824
 C         -1.8677998407       -5.0032309227        0.5300833368
 H         -2.7680342273       -5.4920351674        0.1892506123
 H         -1.8152282744       -4.8875612682        1.6032163722
 H         -0.6139610057       -5.9013531062       -1.0743437600
 H          0.3266442677       -5.2902369800        0.3467224746
 H         -1.7934478726       -3.6827461081       -1.2403883444
