  62
        -98.93698477
 C         -1.7574880390       -0.5317854003       -0.1327698797
 C         -2.8534508689       -1.2214796506        0.4370951202
 C         -4.1860711989       -0.8354801607       -0.0493461296
 C         -4.2863302691        0.1153374195       -0.9962249194
 C         -5.5730087592        0.6765130795       -1.5319844392
 C         -6.1734143493        1.6732507991       -0.5197496690
 C         -7.5063276892        1.2323607188        0.0857026210
 H         -7.7177987493        1.8954059486        0.9273511612
 H         -8.2967722393        1.3768341089       -0.6537794689
 C         -7.5742330890       -0.2205374313        0.5660142806
 H         -8.4615409490       -0.3051607816        1.1970455007
 H         -7.7351146789       -0.8818289511       -0.2866716095
 C         -6.3589830289       -0.7242455313        1.3551887605
 H         -5.8298245190        0.1083522286        1.8192800306
 H         -6.7205088888       -1.3616935516        2.1646212403
 C         -5.3648679988       -1.5656216710        0.5329169702
 H         -5.9008572588       -2.0881445609       -0.2641095399
 H         -4.9264923087       -2.3251380911        1.1869772500
 H         -5.4442533993        1.8317402391        0.2776698710
 H         -6.3212183395        2.6393903692       -1.0046963187
 H         -5.3415466393        1.1809861097       -2.4702703891
 H         -6.2717058491       -0.1323667406       -1.7337851894
 O         -3.2074060892        0.7456189398       -1.5307065593
 C         -1.9180249292        0.4455834799       -1.1140923594
 O         -1.0274067393        1.1052319001       -1.6827878693
 O         -2.7224559387       -2.1149805708        1.3167741300
 C         -0.3545099189       -0.8763049102        0.3314293002
 C          0.3541324909        0.3541618797        0.8394686704
 C         -0.3186445992        1.2149467194        1.7032371207
 C          0.2923845307        2.3583844994        2.1783786409
 C          1.5903429306        2.6649607097        1.8099472309
 C          2.2796216507        1.8022650900        0.9660382107
 C          1.6643261009        0.6494224500        0.4955303204
 H          2.2094455609        0.0036078903       -0.1715898997
 N          3.6113673007        2.0650597103        0.6329063707
 S          4.4066204407        1.3798231907       -0.6582455495
 O          5.6409182706        2.1326170109       -0.7437749994
 O          3.6064758607        1.3497748509       -1.8597312595
 C          4.7791482110       -0.2782133694       -0.1228685599
 C          5.0491239111       -0.5195013197        1.2095757900
 C          5.3765492213       -1.8071492697        1.6034825597
 C          5.4385096914       -2.8251999295        0.6644575595
 C          5.1720690113       -2.5658391792       -0.6707813105
 C          4.8380230911       -1.2810803092       -1.0701311002
 H          4.6105899910       -1.0374052890       -2.0961829701
 H          5.2213149014       -3.3580351690       -1.4009942707
 H          5.6942838315       -3.8263073695        0.9735479992
 H          5.5828286913       -2.0122645099        2.6416066696
 H          4.9925667810        0.2920362002        1.9154433402
 H          3.9674044306        2.9724238203        0.8895263709
 H          2.0657951505        3.5639862197        2.1708476811
 H         -0.2470600994        3.0220895192        2.8374278511
 H         -1.3357965791        0.9804051992        1.9864179007
 H         -0.4898883988       -1.5693832505        1.1756153200
 C          0.3989466511       -1.5956257999       -0.7679296900
 C          1.4340832813       -2.6243639498       -0.4267176703
 C          0.1178541713       -3.0484765899       -1.0036194104
 H          0.0894982313       -3.4093684496       -2.0207996904
 H         -0.6002105686       -3.5234443401       -0.3512605804
 H          2.3140131913       -2.6934343395       -1.0480619904
 H          1.6174860714       -2.8213330400        0.6185685496
 H          0.5652710610       -0.9684064696       -1.6378393799
