  62
        -98.94616293
 C         -1.5249288469       -1.4717169123       -0.0588165796
 C         -1.4906673183       -0.1136131541        0.3413341385
 C         -2.7821950545        0.4670795875        0.7363476870
 C         -3.8846848113       -0.3038261767        0.7195487022
 C         -5.2702244635        0.1783796412        1.0363095998
 C         -5.9887384762        0.6702014390       -0.2282651793
 C         -5.1612553838        1.6390305795       -1.0732518465
 H         -4.2959202213        1.1087154005       -1.4772790436
 H         -5.7797431338        1.9380381797       -1.9224096003
 C         -4.6842795095        2.8899398701       -0.3220329644
 H         -4.8571071231        3.7641018175       -0.9534475181
 H         -5.2753279645        3.0243885534        0.5846289514
 C         -3.1973835582        2.8849054294        0.0380733575
 H         -2.6058246614        2.6577455690       -0.8520053300
 H         -2.9269435788        3.8914046907        0.3679593751
 C         -2.7858313872        1.9118334556        1.1495951346
 H         -1.7530762119        2.1409575593        1.4284060329
 H         -3.4223178127        2.0613188172        2.0239902871
 H         -6.9226210205        1.1502098488        0.0701742832
 H         -6.2353291416       -0.1970262318       -0.8453793373
 H         -5.8350924986       -0.6512543208        1.4647753635
 H         -5.2113018612        0.9812215869        1.7686924917
 O         -3.8698073532       -1.6142202083        0.3614302794
 C         -2.6946263833       -2.2289999726       -0.0426727468
 O         -2.8195813260       -3.4327666349       -0.3479043366
 H          2.3125011406       -1.0987003484       -0.7635826959
 C          2.0570899109       -1.3803842564        0.2430750057
 C          0.8263864285       -1.9477977224        0.5291884763
 C          0.5591414942       -2.3358785558        1.8400301059
 C          1.4910032000       -2.1356492933        2.8392482444
 C          2.7030025363       -1.5289914855        2.5575921751
 C          2.9841585112       -1.1510556746        1.2507426668
 N          4.2050789696       -0.5442825447        0.9305374119
 S          4.3341393780        0.5301385218       -0.3395968531
 O          4.3542445635       -0.1864515558       -1.5913047005
 O          5.5338001039        1.2834788003       -0.0358687317
 C          2.9207338024        1.6155581154       -0.2743615315
 C          2.6423417474        2.2758559863        0.9044555455
 C          1.5691464856        3.1493862746        0.9441767188
 C          0.7990186274        3.3506463001       -0.1894203039
 C          1.0941541880        2.6835084712       -1.3662144403
 C          2.1641089554        1.8061462357       -1.4112157302
 H          2.4225631792        1.2598258576       -2.3052333148
 H          0.4875691660        2.8347767861       -2.2455639520
 H         -0.0428005114        4.0243823658       -0.1543861501
 H          1.3303578347        3.6642368008        1.8612700018
 H          3.2595079296        2.1023787391        1.7713999695
 H          4.7765737943       -0.2767514337        1.7175190211
 H          3.4245300294       -1.3526746227        3.3405927777
 H          1.2679847019       -2.4401029440        3.8508989435
 H         -0.3978488315       -2.7877831218        2.0648732540
 C         -0.2415748851       -2.1403626394       -0.5187625437
 H         -0.4618087517       -3.2141066376       -0.6049871940
 C          0.1527860866       -1.6074397057       -1.8806025447
 C          1.0015814242       -2.4330247967       -2.7986362074
 C         -0.4478228780       -2.2139862115       -3.1111679940
 H         -0.7067654237       -1.5641791085       -3.9337057279
 H         -1.1322352263       -3.0387828742       -2.9746856250
 H          1.7455867077       -1.9351302025       -3.4027687203
 H          1.3037802209       -3.4106105907       -2.4542066435
 H          0.3032244359       -0.5332328978       -1.8759885413
 O         -0.4411652756        0.5765713674        0.3678109776
