  62
        -98.94626206
 C         -2.3901780401       -0.5218037009       -0.0116311871
 C         -1.3965893083       -0.7226063514        0.9740354998
 C         -0.7111015128       -2.0203621129        0.9499792246
 C         -1.0528342706       -2.9234565403        0.0133763719
 C         -0.3518987710       -4.2296865661       -0.2278120349
 C          0.9546075761       -3.9722270595       -1.0075917146
 C          2.2300219423       -4.3091103471       -0.2340938298
 H          2.3552949625       -5.3941672980       -0.2087240668
 H          3.0668243042       -3.8906852249       -0.7980715056
 C          2.2923334945       -3.7927337485        1.2067134258
 H          3.3353253905       -3.8581394550        1.5235509957
 H          1.7248900602       -4.4589359416        1.8587289874
 C          1.8008100493       -2.3552420809        1.4209285905
 H          1.8677486098       -1.7849709022        0.4932666866
 H          2.4624486312       -1.8696619998        2.1417935890
 C          0.3659779918       -2.2495359069        1.9732276531
 H          0.1306537734       -3.1403814298        2.5620437949
 H          0.3104603238       -1.3854843068        2.6414552316
 H          0.9495162034       -4.5564883199       -1.9297178445
 H          0.9780646652       -2.9206388548       -1.3051224112
 H         -0.1434592852       -4.7205885895        0.7202828209
 H         -1.0237571072       -4.8608673751       -0.8101958208
 O         -2.0386187585       -2.7093747633       -0.8966879218
 C         -2.7077773852       -1.4975143561       -0.9531712989
 O         -3.5528675863       -1.4142361316       -1.8694396208
 H         -0.8701694940        0.6738921931       -1.6346784656
 C         -0.9115048466        1.6160348924       -1.1074728728
 C         -1.9914851965        1.8951038551       -0.2792430996
 C         -2.0268967415        3.1233339427        0.3686936883
 C         -0.9889600531        4.0269339722        0.2149871583
 C          0.1128139004        3.7177831409       -0.5617700804
 C          0.1509276640        2.4963926763       -1.2247051678
 N          1.2552637164        2.1192395607       -2.0166096925
 S          2.1060646791        0.7440241709       -1.5749536992
 O          3.1799109939        0.6464891242       -2.5407667706
 O          1.2184112409       -0.3872507947       -1.4980616994
 C          2.7960187276        1.1319011977        0.0243067257
 C          4.1360126381        1.4616851565        0.0989517939
 C          4.6749255567        1.8141981275        1.3252772814
 C          3.8653599366        1.8401897810        2.4511092376
 C          2.5220157454        1.5121948593        2.3573224701
 C          1.9753610239        1.1542300516        1.1340851795
 H          0.9335464398        0.8879044682        1.0488210416
 H          1.8839951787        1.5294403152        3.2264743266
 H          4.2823742255        2.1164528227        3.4067456139
 H          5.7201822093        2.0679906329        1.3986714986
 H          4.7251153255        1.4250253806       -0.8032002102
 H          1.9119872427        2.8697606273       -2.1824414863
 H          0.9361705413        4.4098505087       -0.6554019644
 H         -1.0290390525        4.9767355746        0.7259684394
 H         -2.8634034493        3.3695317943        1.0021304509
 C         -3.0589351092        0.8365324799       -0.1278446358
 H         -3.6560464538        0.8076494312       -1.0513601812
 C         -3.9834515588        1.0793375492        1.0472075669
 C         -5.2103680966        1.9242772617        0.8842665334
 C         -5.3381330627        0.4397817664        1.0427273677
 H         -5.7275654404        0.0489096333        1.9706673760
 H         -5.6023376711       -0.1496157266        0.1764244454
 H         -5.4023347584        2.3459136880       -0.0908732631
 H         -5.5172702241        2.5526078109        1.7067697310
 H         -3.4520372171        1.1199604977        1.9909710186
 O         -1.0847949303        0.1530677817        1.8252197597
