  62
        -98.94860029
 C          1.4705269692        1.4137534411        0.1580056304
 C          0.8397453990        2.3453681308       -0.6984112498
 C         -0.4905279216        2.7994526797       -0.2781157604
 C         -1.0330850519        2.3199367190        0.8560982792
 C         -2.3630508826        2.7169526978        1.4371624385
 C         -3.5590730616        1.9652525170        0.8397057576
 C         -3.9431575611        2.3737939570       -0.5823857125
 H         -4.9217804007        1.9358449163       -0.7887041431
 H         -4.0538293220        3.4576253169       -0.6349261723
 C         -2.9601204001        1.9043850280       -1.6636656120
 H         -2.3347801797        1.0947693784       -1.2777129319
 H         -3.5154709593        1.4855299278       -2.5067462124
 C         -2.0587007107        3.0041597489       -2.2258368113
 H         -2.6656306410        3.7342444685       -2.7672341415
 H         -1.3706668199        2.5424777796       -2.9392836110
 C         -1.2266703119        3.7490757093       -1.1739763206
 H         -0.4829996621        4.3567060500       -1.6962222001
 H         -1.8671134528        4.4079930187       -0.5874159609
 H         -3.3420007808        0.8953851572        0.8601279575
 H         -4.4166644721        2.1482598062        1.4909855672
 H         -2.3134568730        2.4904798176        2.5041865685
 H         -2.5077838133        3.7910216177        1.3153635786
 O         -0.3968989616        1.4178073993        1.6492704793
 C          0.8606313189        0.9352040604        1.3174089999
 O          1.3210587491        0.1056610006        2.1235199200
 O          1.3681876192        2.7842659315       -1.7566887694
 C          2.8299262399        0.8559260223       -0.2191393890
 C          2.7687343611       -0.6505585477       -0.2934379393
 C          3.8033771615       -1.4763021770        0.1289272411
 C          3.6698448527       -2.8526493871        0.0638449007
 C          2.5043766034       -3.4331397379       -0.4018310901
 C          1.4666040230       -2.6144476686       -0.8372563805
 C          1.6191975019       -1.2377821885       -0.8055512101
 H          0.8128854716       -0.6122661191       -1.1574973804
 N          0.2716742737       -3.1754957895       -1.3113645413
 S         -1.2132236469       -2.4335810007       -1.2920718020
 O         -2.1099041458       -3.4364100813       -1.8276418727
 O         -1.1698620575       -1.1870186605       -2.0166831217
 C         -1.7033489281       -2.1104115114        0.3975720678
 C         -0.8246861487       -2.1321523710        1.4602532983
 C         -1.3061760696       -1.8522495916        2.7310873481
 C         -2.6473426700       -1.5654631927        2.9210446974
 C         -3.5214481794       -1.5564317332        1.8442090269
 C         -3.0454568484       -1.8277430625        0.5722389971
 H         -3.6865824979       -1.8271559929       -0.2952077333
 H         -4.5663920896       -1.3332065441        1.9901178064
 H         -3.0127380007       -1.3441164332        3.9114262872
 H         -0.6155508401       -1.8440119113        3.5586695485
 H          0.2238145715       -2.3326633001        1.3114788889
 H          0.1882765144       -4.1756328896       -1.2110827316
 H          2.3919484043       -4.5061186880       -0.4270265204
 H          4.4791997830       -3.4838682465        0.3976928710
 H          4.7102850210       -1.0428199363        0.5174210417
 H          3.0424233001        1.2471224727       -1.2258223388
 C          3.8930311389        1.3611505330        0.7355952117
 C          5.2918541390        1.6093263242        0.2578461526
 C          4.3943058179        2.7646499334        0.5809665923
 H          4.5929377569        3.3430211533        1.4707137426
 H          3.9903646479        3.3453090232       -0.2356535378
 H          6.1112522888        1.3973283747        0.9281581030
 H          5.5085663897        1.4143933846       -0.7817180373
 H          3.7528951087        0.9880851726        1.7440461016
