  62
        -98.94321769
 C         -1.0575354967       -1.6839984537       -0.3514166191
 C          0.1308634909       -1.5012391625       -1.0932996747
 C          1.3627578579       -2.0922088959       -0.5388355708
 C          1.2989832562       -2.7186758234        0.6502856523
 C          2.4233460956       -3.3766629403        1.4050634034
 C          3.3271424138       -2.3650156875        2.1323006685
 C          3.6144896157       -1.0816343516        1.3560962365
 H          4.1196470980       -0.3884246877        2.0357491569
 H          2.6631320602       -0.6158640319        1.0877074893
 C          4.4970113651       -1.2493794796        0.1204900999
 H          5.4809966730       -1.6026676169        0.4391134761
 H          4.6311135789       -0.2601515010       -0.3255217982
 C          3.9774734541       -2.2011814567       -0.9571306492
 H          4.0709597569       -3.2330718302       -0.6298216701
 H          4.6300417506       -2.0906295298       -1.8283541718
 C          2.5582665200       -1.9231584011       -1.4445261716
 H          2.3651110388       -2.5568916112       -2.3191741963
 H          2.4992415218       -0.8933875223       -1.8126556044
 H          4.2659905459       -2.8579605566        2.3912187978
 H          2.8280152428       -2.0754864764        3.0602799138
 H          3.0000050867       -4.0022699203        0.7292977346
 H          1.9631602984       -4.0285338709        2.1508787921
 O          0.1437707644       -2.8083278465        1.3675023762
 C         -1.0500256454       -2.2859736309        0.9055183196
 O         -2.0115625886       -2.4328094531        1.6855852821
 O          0.1659347243       -0.8706311786       -2.1857524008
 C         -2.3528230804       -1.0946084171       -0.8853952204
 C         -2.7441071512        0.0605266788        0.0019095107
 C         -3.9748925401        0.1889221977        0.6299912461
 C         -4.2118853396        1.2539039927        1.4833388280
 C         -3.2313059216        2.1949491388        1.7379684758
 C         -2.0005418943        2.0816019674        1.0998204041
 C         -1.7804287853        1.0377056530        0.2191561958
 H         -0.8250029252        0.9506430231       -0.2768780959
 N         -0.9768849443        3.0165145221        1.3118156019
 S          0.6216562715        2.5323659842        1.2156814710
 O          0.8133681877        1.1793326828        1.6847730871
 O          1.3493569025        3.5548888905        1.9410695448
 C          1.0375836063        2.6647800248       -0.5107247203
 C          2.1170329564        1.9387109630       -0.9715265534
 C          2.4898842917        2.0556971307       -2.3005250183
 C          1.7792480819        2.8950340247       -3.1434176877
 C          0.7004059669        3.6215322025       -2.6646236061
 C          0.3250128540        3.5120687115       -1.3350534915
 H         -0.5133642120        4.0578582058       -0.9352908333
 H          0.1472807378        4.2713155911       -3.3237243108
 H          2.0668612742        2.9790205851       -4.1795100630
 H          3.3284715312        1.4894230074       -2.6742123440
 H          2.6338093473        1.2883218669       -0.2836567348
 H         -1.1361831976        3.6799052359        2.0553975912
 H         -3.4099778292        3.0066183199        2.4265869484
 H         -5.1699175486        1.3411347843        1.9732043639
 H         -4.7414454456       -0.5505546720        0.4670216854
 H         -2.1017636192       -0.6930863936       -1.8783005391
 C         -3.4243438982       -2.1509698813       -1.0364049191
 C         -4.5371986046       -1.9516075129       -2.0204414794
 C         -3.4691361219       -2.9664588137       -2.2927273494
 H         -3.7187243370       -4.0141327366       -2.2173480090
 H         -2.7352455886       -2.7466188566       -3.0542396448
 H         -5.5238792037       -2.3043545578       -1.7613043084
 H         -4.5314716978       -1.0423736043       -2.6019940897
 H         -3.6468810433       -2.6574880042       -0.1044332073
