  62
        -98.94430729
 C          2.0738986379        1.3907029645        0.0370899167
 C          2.3699224760        0.4368780685       -0.9665887694
 C          3.7170364599       -0.1521841150       -0.9190204355
 C          4.5791846784        0.2304131956        0.0393400218
 C          5.9544442526       -0.3360360796        0.2372064851
 C          5.9302234311       -1.5276409588        1.2047863165
 C          4.8609760840       -2.5698117664        0.8762581896
 H          4.9592172234       -3.3772981084        1.6051250609
 H          3.8729026506       -2.1265167564        1.0217412249
 C          4.9526316227       -3.1487247909       -0.5425762198
 H          4.8281139500       -4.2322823567       -0.4869094813
 H          5.9429624087       -2.9576576218       -0.9575419898
 C          3.8887327816       -2.6277405552       -1.5105831195
 H          2.8994267029       -2.7337548598       -1.0574607992
 H          3.9070725571       -3.2559321356       -2.4053648278
 C          4.0584366301       -1.1733482413       -1.9679092563
 H          5.0737865442       -1.0206971428       -2.3388069925
 H          3.3617184487       -1.0017835244       -2.7935715690
 H          6.9145995578       -1.9991440595        1.1964971340
 H          5.7418920791       -1.1515720568        2.2130500176
 H          6.3576226207       -0.6443582344       -0.7254354257
 H          6.5914620944        0.4457936802        0.6541964417
 O          4.2682014540        1.1581464747        0.9787171871
 C          3.0186694905        1.7503136904        1.0054637253
 O          2.8693822384        2.5805855282        1.9238671170
 O          1.5684474723        0.0732322667       -1.8701486624
 C          0.7334262525        2.1020659695        0.1512470096
 C         -0.3061948865        1.2195827761        0.8005346932
 C         -0.8988876521        1.5826805238        2.0040643985
 C         -1.8608978139        0.7767637882        2.5884171442
 C         -2.2508407403       -0.4053790173        1.9855316538
 C         -1.6625858568       -0.7767886504        0.7830050022
 C         -0.7059384259        0.0370739809        0.1941958961
 H         -0.2496282537       -0.2588524389       -0.7386903879
 N         -2.0535029099       -1.9743812044        0.1581832441
 S         -3.6969859237       -2.2502577017        0.0046604770
 O         -4.2129660324       -2.7888653674        1.2390180502
 O         -3.8398151475       -3.0965258575       -1.1591555467
 C         -4.4084914848       -0.6412961126       -0.2942154895
 C         -3.9816191012        0.0619041363       -1.4034121166
 C         -4.4919784457        1.3293626920       -1.6297102107
 C         -5.4147156982        1.8702840600       -0.7474094344
 C         -5.8370905147        1.1494299084        0.3584317791
 C         -5.3284251006       -0.1184717606        0.5912346672
 H         -5.6250733249       -0.7118512130        1.4407102759
 H         -6.5563591463        1.5715778035        1.0415413155
 H         -5.8060535990        2.8595452899       -0.9247294740
 H         -4.1644729563        1.8907953593       -2.4899510151
 H         -3.2646164653       -0.3860894823       -2.0728781340
 H         -1.5691752537       -2.1500694640       -0.7102003837
 H         -2.9920173039       -1.0500640265        2.4297338161
 H         -2.3104298551        1.0706564433        3.5245108223
 H         -0.5899012070        2.4973478009        2.4886404533
 H          0.9107547206        2.9547498474        0.8197000442
 C          0.2291541978        2.6339718450       -1.1775037828
 C         -0.7842361562        3.7367971904       -1.1796580176
 C          0.6244404101        4.0118105951       -1.6115139697
 H          0.8220344576        4.1849754656       -2.6588020641
 H          1.2608324667        4.5809539270       -0.9492044883
 H         -1.5575739490        3.7233409667       -1.9317962051
 H         -1.1058781442        4.1226507684       -0.2243782538
 H          0.1527158354        1.8748392107       -1.9442164094
