  62
        -98.93782260
 C         -1.3366198355       -1.5168226163       -0.5839090715
 C         -2.5564229798       -1.5126750990        0.1347650624
 C         -3.5658909387       -0.5026447352       -0.2334908942
 C         -3.2798468474        0.3581771574       -1.2276228074
 C         -4.1160047344        1.4967060669       -1.7493950686
 C         -4.0962436996        2.7159152679       -0.8146933177
 C         -4.2814411765        2.3917581558        0.6652770032
 H         -3.4834019944        1.7182766600        0.9847235057
 H         -4.1569167540        3.3226061998        1.2253983650
 C         -5.6374366720        1.7963870258        1.0384920601
 H         -5.6651837306        1.7173877047        2.1282700724
 H         -6.4265113130        2.4883014305        0.7357175506
 C         -5.9489648084        0.4155549633        0.4559658748
 H         -6.2598824564        0.4874661978       -0.5828525050
 H         -6.8037630954        0.0153815500        1.0089691779
 C         -4.8226341658       -0.6032367084        0.5971897848
 H         -5.2280206852       -1.6023177528        0.3961171520
 H         -4.4930900657       -0.6325726067        1.6421686715
 H         -4.8719106785        3.4123788825       -1.1385584113
 H         -3.1275940260        3.2108861130       -0.9249450598
 H         -3.6833095349        1.7890087604       -2.7089100274
 H         -5.1338477092        1.1642426960       -1.9309757757
 O         -2.0974953975        0.3149708429       -1.9008386461
 C         -1.0915067587       -0.5884917363       -1.5962029754
 O         -0.0758162759       -0.4581985939       -2.3036653866
 O         -2.8004132996       -2.3330576844        1.0625174313
 C         -0.3025481373       -2.5396872714       -0.1505974593
 C          0.5346040465       -2.0076808715        0.9874782300
 C          0.9160042410       -2.8316332272        2.0404433254
 C          1.6841821126       -2.3331362698        3.0778279859
 C          2.0763933086       -1.0072138737        3.0907413779
 C          1.6842785898       -0.1684308773        2.0513615645
 C          0.9308423752       -0.6783475230        1.0039355780
 H          0.6225409436       -0.0199656228        0.2089028139
 N          2.0178559146        1.1874898045        2.0782235726
 S          2.0394978991        2.1979263231        0.7533790932
 O          2.5743434755        3.4336657901        1.2866891462
 O          0.7308282165        2.2815945366        0.1565524300
 C          3.2385056882        1.4943835632       -0.3628076646
 C          2.8537627205        0.8417517102       -1.5151036513
 C          3.8381475872        0.3141258246       -2.3389153169
 C          5.1748472304        0.4390414577       -1.9982203565
 C          5.5440281064        1.0973460310       -0.8340750203
 C          4.5688736667        1.6314501528       -0.0098477036
 H          4.8126797175        2.1705561441        0.8910594942
 H          6.5846018593        1.1967739065       -0.5704864544
 H          5.9320262276        0.0235317214       -2.6442535022
 H          3.5428361934       -0.1943696669       -3.2426054119
 H          1.8085175692        0.7386615408       -1.7634693715
 H          2.6521688402        1.4754456728        2.8064731450
 H          2.6629957046       -0.6140330948        3.9065732448
 H          1.9750657364       -2.9820992497        3.8897105513
 H          0.5879592462       -3.8604867269        2.0546251841
 H         -0.8879884889       -3.3849989553        0.2468169964
 C          0.5448958086       -3.0705519194       -1.2978752623
 C          1.9754343395       -2.6837481875       -1.5040380000
 C          1.6367072148       -4.0677771750       -1.0438273247
 H          1.7539535321       -4.8868691749       -1.7369426777
 H          1.8582076019       -4.3197644480       -0.0184881454
 H          2.3114579118       -2.5373879370       -2.5183702391
 H          2.4229330258       -2.0014408468       -0.7975798130
 H         -0.0458176669       -3.2164597755       -2.1964282830
