  62
        -98.93597247
 C         -1.7965354446       -1.0160252309       -0.1706292351
 C         -2.3723848874        0.2594446217       -0.3650635551
 C         -3.8269368989        0.3667477927       -0.1337770766
 C         -4.5099824894       -0.7239943078        0.2577554819
 C         -5.9829594671       -0.8632224741        0.5491592516
 C         -6.6300752190        0.2570315221        1.3780377115
 C         -7.5850480058        1.1371280711        0.5698534487
 H         -8.1507506065        0.5000003939       -0.1131514631
 H         -8.3012101195        1.5966835271        1.2547338586
 C         -6.9188824161        2.2605070717       -0.2228117558
 H         -6.5699132003        3.0320855757        0.4669883562
 H         -7.6829015091        2.7148135092       -0.8581511748
 C         -5.7417299243        1.8327130806       -1.1017633620
 H         -5.6228501609        2.5815748177       -1.8878497883
 H         -5.9576605115        0.8860508449       -1.5957684858
 C         -4.4094999593        1.7378478058       -0.3428338396
 H         -3.6347250671        2.2845798891       -0.8897973253
 H         -4.4964323786        2.2354719300        0.6275183304
 H         -7.2023585884       -0.2109511529        2.1806547037
 H         -5.8576706419        0.8657480609        1.8454800982
 H         -6.5144271250       -0.9771497284       -0.3988675790
 H         -6.0781669990       -1.8160073880        1.0748941544
 O         -3.9086795740       -1.9365704122        0.4301740982
 C         -2.5546019863       -2.1174181808        0.2223983868
 O         -2.1497786011       -3.2799798839        0.4247165733
 H          1.7567523492        0.5036648557       -1.0792480862
 C          1.4987101132        0.5274040550       -0.0342481685
 C          0.4819852794       -0.2697145953        0.4663620551
 C          0.1818691205       -0.1918482641        1.8247309286
 C          0.8631244922        0.6790453078        2.6512792612
 C          1.8714238528        1.4812952689        2.1452613379
 C          2.1871167002        1.4042498635        0.7951906288
 N          3.2007867983        2.2116548839        0.2533854754
 S          4.3349208695        1.5438068733       -0.7771085977
 O          5.4318519135        2.4865022626       -0.7685189062
 O          3.7474604033        1.2641461764       -2.0616766909
 C          4.8217365222        0.0306469365        0.0309399101
 C          5.6589657720        0.1179142756        1.1263516406
 C          5.9925531991       -1.0399677699        1.8092926001
 C          5.4790437259       -2.2588294683        1.3921113125
 C          4.6421367080       -2.3295558292        0.2894605044
 C          4.3074534382       -1.1746677493       -0.4001184181
 H          3.6631252806       -1.1890965244       -1.2634819922
 H          4.2459984324       -3.2787188874       -0.0350677026
 H          5.7342003643       -3.1598961132        1.9272680075
 H          6.6473894016       -0.9898009742        2.6642620792
 H          6.0455583052        1.0827067728        1.4123628043
 H          3.6413259503        2.8283095219        0.9203509913
 H          2.4000375066        2.1692969304        2.7873868543
 H          0.6103362782        0.7341308182        3.6994145258
 H         -0.6073819511       -0.8175630282        2.2194043191
 C         -0.3093090009       -1.2226880090       -0.3956157418
 H         -0.0941037943       -2.2482726547       -0.0612606692
 C          0.0106216303       -1.1161005296       -1.8718467420
 C          1.1262690096       -1.9218703338       -2.4634886139
 C         -0.2976755003       -2.2767333748       -2.7675217600
 H         -0.6829777839       -2.0769223807       -3.7561160038
 H         -0.7142385362       -3.1606060189       -2.3062551052
 H          1.6704738279       -2.5782565297       -1.8010585795
 H          1.7271371557       -1.4768773842       -3.2431853951
 H         -0.1694875822       -0.1232605416       -2.2688012493
 O         -1.7079438815        1.2693436674       -0.7178521682
