  62
        -98.94472622
 C         -1.4232105593       -0.7745236000        0.3223233397
 C         -2.4268959097       -0.8094591492       -0.6770230898
 C         -3.3301968497        0.3521161509       -0.7189673585
 C         -3.1276359593        1.3849261302        0.1174173622
 C         -3.9986396592        2.6036375702        0.2061849635
 C         -5.1096720388        2.4157714694        1.2489559939
 C         -5.8744233389        1.0995141795        1.1083327132
 H         -5.1987651088        0.2690616693        1.3261458122
 H         -6.6501624586        1.0911915490        1.8772191735
 C         -6.5175341095        0.8814737706       -0.2683990467
 H         -6.5919355997        1.8323615211       -0.7972898959
 H         -7.5346119294        0.5107539006       -0.1240753166
 C         -5.7942886999       -0.1356186287       -1.1532880078
 H         -5.6364954897       -1.0608605991       -0.5932020386
 H         -6.4450899803       -0.3727409380       -1.9991321377
 C         -4.4455693502        0.3182570517       -1.7258235181
 H         -4.1437920105       -0.4107630277       -2.4832810888
 H         -4.5597298203        1.2897350721       -2.2103979973
 H         -5.8053035088        3.2529828395        1.1672560048
 H         -4.6594872483        2.4442946686        2.2440851637
 H         -3.3784061591        3.4518139999        0.5005947439
 H         -4.4337483996        2.8055899310       -0.7705654861
 O         -2.1164078489        1.4111049194        1.0231278818
 C         -1.2669157289        0.3280891793        1.1674502005
 O         -0.4177976085        0.4657448785        2.0717937403
 H          2.1435906410       -1.2978167408        1.0936518278
 C          1.9831127005       -1.4580526900        0.0382230377
 C          0.7201351603       -1.7890618895       -0.4306872220
 C          0.5436996397       -1.9930408885       -1.7955801521
 C          1.6124838293       -1.8680155078       -2.6634847224
 C          2.8685449196       -1.5244107782       -2.1942187527
 C          3.0542758902       -1.3145816593       -0.8332973426
 N          4.3190338904       -0.9719670098       -0.3259004729
 S          4.4561536009        0.2571668593        0.8028912180
 O          5.8613365010        0.6017185193        0.7831332576
 O          3.9290104715       -0.1748206516        2.0709628979
 C          3.4989471307        1.5975555199        0.1201027395
 C          2.1868857909        1.7887718397        0.5007680202
 C          1.4561103007        2.7961549002       -0.1109312187
 C          2.0424982303        3.5902414009       -1.0830873583
 C          3.3653269601        3.3889763812       -1.4492127091
 C          4.0994610603        2.3810708806       -0.8476022002
 H          5.1325804402        2.1977349008       -1.0952015208
 H          3.8218892098        4.0118416117       -2.2014029188
 H          1.4659419701        4.3709366213       -1.5538445475
 H          0.4281879608        2.9433653300        0.1832504819
 H          1.7406723012        1.1682368591        1.2621797899
 H          5.0373425001       -0.8870796992       -1.0309537132
 H          3.7004711393       -1.4219057377       -2.8742559130
 H          1.4647584689       -2.0312817870       -3.7202308325
 H         -0.4396978105       -2.2345126581       -2.1678388718
 C         -0.4279373593       -1.9039534303        0.5437109284
 H         -0.0197734788       -1.7464632511        1.5518259484
 C         -1.0577677693       -3.2820311602        0.4981423376
 C         -0.3371998591       -4.4244879507        1.1453642864
 C         -1.5924174988       -3.8838723312        1.7608961074
 H         -2.4923353789       -4.4781468111        1.7080719273
 H         -1.5057924784       -3.3039369419        2.6688323778
 H          0.6007239211       -4.2101498712        1.6362419862
 H         -0.3731400894       -5.3924802004        0.6698068956
 H         -1.6024140697       -3.4810725894       -0.4147126523
 O         -2.5849743001       -1.7486483686       -1.4998782705
