  62
        -98.93268559
 C          1.0985397795        1.6073036478       -0.3641537969
 C          1.1303591766        0.1909314473       -0.3058763019
 C          2.2629512030       -0.4234065351        0.4204099047
 C          3.1729252739        0.3599937444        1.0193984308
 C          4.4005219685       -0.0493884809        1.7865962360
 C          5.6309131933       -0.1221628743        0.8662568530
 C          5.8396904211       -1.4684687390        0.1745098541
 H          6.6649125265       -1.3471990432       -0.5308916209
 H          6.1478858979       -2.2086323183        0.9158943542
 C          4.6218032431       -2.0065915472       -0.5796964820
 H          4.1505536636       -1.1962116486       -1.1384802272
 H          4.9744685046       -2.7402126451       -1.3069236255
 C          3.5877826775       -2.6726872630        0.3403255978
 H          4.0210863035       -2.8092965723        1.3306838949
 H          3.3578998036       -3.6717745545       -0.0359048250
 C          2.2520892128       -1.9281687817        0.4552380677
 H          1.6016199176       -2.2210962418       -0.3749586178
 H          1.7395539087       -2.2408115358        1.3726301485
 H          5.5351461733        0.6673284062        0.1164220874
 H          6.5224042870        0.0962943281        1.4577119449
 H          4.5692283071        0.7318996366        2.5310701232
 H          4.2371435565       -0.9903073859        2.3036596065
 O          3.1033540630        1.7180930281        0.9570219977
 C          2.0878473624        2.3619475083        0.2834978729
 O          2.1736536260        3.6075026086        0.3302497525
 H         -1.4805694452        0.3428349019       -0.2233286316
 C         -1.9205286468        1.2820154657        0.0617453681
 C         -1.2786785952        2.4672810002       -0.2604916534
 C         -1.8688903233        3.6683461342        0.1211462424
 C         -3.0639224314        3.6763978311        0.8175710710
 C         -3.6846702024        2.4892008526        1.1644591256
 C         -3.1023134388        1.2852247144        0.7877996686
 N         -3.6991149396        0.0564308783        1.1050115757
 S         -2.7350755925       -1.2577888077        1.4983152324
 O         -3.6181557149       -2.1312992262        2.2492977599
 O         -1.5373132835       -0.8501840459        2.1980575709
 C         -2.3530129569       -2.0611940542       -0.0430195233
 C         -1.3569418801       -3.0153566727       -0.0306449104
 C         -1.0582161572       -3.6903117099       -1.2023863513
 C         -1.7591010518       -3.4005474707       -2.3619261936
 C         -2.7600946745       -2.4426285343       -2.3560028198
 C         -3.0663222792       -1.7660840671       -1.1859461027
 H         -3.8297421095       -1.0062790282       -1.1559553403
 H         -3.2988568336       -2.2131148954       -3.2614821396
 H         -1.5179049296       -3.9191290450       -3.2766884591
 H         -0.2742240620       -4.4311203187       -1.2082801890
 H         -0.8242593687       -3.1971496507        0.8894093330
 H         -4.5160851706        0.1094186455        1.6955134146
 H         -4.6074694966        2.4932686822        1.7246581605
 H         -3.5100815659        4.6157973395        1.1073567898
 H         -1.3755017593        4.5991310719       -0.1196515069
 C          0.0275364912        2.4698766894       -1.0229309532
 H          0.4393175743        3.4870546458       -0.9319845714
 C         -0.2456069310        2.2888281700       -2.5143395745
 C          0.7188404332        1.6231569527       -3.4465804041
 C         -0.6222555793        1.0053431119       -3.1865062952
 H         -1.3668258476        1.0499846309       -3.9678831525
 H         -0.6498990777        0.1077357860       -2.5921483847
 H          0.9137652387        2.0816824057       -4.4049303897
 H          1.5811308372        1.1430319833       -3.0066068032
 H         -0.7406808713        3.1737173723       -2.9065801406
 O          0.2796943478       -0.5729693263       -0.8308594262
