  62
        -98.93485278
 C         -2.2660646496       -0.4646813128        0.1464977598
 C         -3.5205813817       -0.9682919457        0.5566592205
 C         -4.6718145031       -0.0493226937        0.4667557176
 C         -4.4645689548        1.2023238903        0.0164049196
 C         -5.4791719029        2.2945358691       -0.1951667761
 C         -6.3260185644        2.0796677127       -1.4600770592
 C         -6.8245320372        0.6515658176       -1.6651739183
 H         -5.9685192696       -0.0248715758       -1.6998952782
 H         -7.3115596317        0.6075807774       -2.6429359353
 C         -7.8237845223        0.1547904215       -0.6231030972
 H         -8.1579551212       -0.8359642734       -0.9414503228
 H         -8.6950279245        0.8135565964       -0.6199343097
 C         -7.2962857385        0.0399684928        0.8085629786
 H         -8.0235626285       -0.5472813446        1.3767792336
 H         -7.2450963685        1.0140668010        1.2873449615
 C         -5.9589526128       -0.6822377734        0.9388900474
 H         -6.0226419627       -1.6500427676        0.4286774302
 H         -5.7958249000       -0.9257479748        1.9957693425
 H         -5.7128331472        2.3450729920       -2.3247949527
 H         -7.1757660051        2.7635176640       -1.4263070960
 H         -4.9180530350        3.2249663663       -0.3064588773
 H         -6.1110615567        2.3917408609        0.6826056110
 O         -3.2314182463        1.6466463466       -0.3647444037
 C         -2.1087206647        0.8417364795       -0.3127852323
 O         -1.0573802065        1.3949798138       -0.6905204798
 O         -3.6808827662       -2.1434803038        0.9856038943
 C         -1.0511692008       -1.3707285647        0.2095255565
 C          0.0245056553       -0.7496463257        1.0656249428
 C         -0.3163438817       -0.2538273052        2.3218448743
 C          0.6361656899        0.3328515729        3.1311863688
 C          1.9492024979        0.4366599826        2.7069248269
 C          2.3052700680       -0.0728035520        1.4640232000
 C          1.3458421257       -0.6676380330        0.6556781330
 H          1.6465938794       -1.0473146870       -0.3056000289
 N          3.6463882038       -0.0290873685        1.0437355542
 S          4.0372939597        0.1534868119       -0.5869359921
 O          3.4329116520        1.3503613503       -1.1281079556
 O          3.7566820195       -1.0787996139       -1.2789573328
 C          5.8026645003        0.3657554872       -0.4419598540
 C          6.3460135458        1.6349062056       -0.5015459505
 C          7.7167027856        1.7851326120       -0.3590239871
 C          8.5158798379        0.6700508289       -0.1571347331
 C          7.9561767282       -0.5978877209       -0.1005866171
 C          6.5869280233       -0.7550201855       -0.2437700124
 H          6.1083384669       -1.7198752600       -0.2158227908
 H          8.5811599227       -1.4626387101        0.0536438773
 H          9.5820159810        0.7897484920       -0.0461695023
 H          8.1546711661        2.7691802577       -0.4061050344
 H          5.6862836315        2.4714822202       -0.6681050709
 H          4.2049232682        0.5957498388        1.6098623042
 H          2.6920201819        0.9049356995        3.3347877022
 H          0.3540254638        0.7210685451        4.0984692327
 H         -1.3448918089       -0.3256976183        2.6492594550
 H         -1.3969904007       -2.2911212943        0.7045159811
 C         -0.5827615245       -1.7185243892       -1.1877336431
 C          0.1133842069       -3.0194478202       -1.4495960283
 C         -1.2842136570       -2.8044019648       -1.9450791456
 H         -1.4442591055       -2.6731107032       -3.0047568358
 H         -2.0898662728       -3.3171883939       -1.4400922142
 H          0.9229201439       -3.0328018731       -2.1641634846
 H          0.2564803963       -3.6845019094       -0.6113325516
 H         -0.2597588954       -0.8463199985       -1.7476297590
