  62
        -98.93428483
 C         -2.5107659633        0.7214562904       -1.0060343094
 C         -3.5822981219        1.0760542975       -0.1492511113
 C         -4.7905138577        0.2402714000       -0.2582300615
 C         -4.8187129811       -0.7820701491       -1.1307882700
 C         -5.9595432955       -1.7433373953       -1.2939441556
 C         -5.7895423065       -2.9673573632       -0.3832515550
 C         -5.4639585980       -2.6167941295        1.0687292449
 H         -5.3977380044       -3.5557925924        1.6226545810
 H         -4.4768082213       -2.1502537965        1.1107277996
 C         -6.4892104443       -1.6959583477        1.7450922726
 H         -6.7031928214       -2.0841381920        2.7432015452
 H         -7.4250091856       -1.7089809614        1.1851295214
 C         -6.0240472318       -0.2491980186        1.9205284286
 H         -5.0414078271       -0.2361538114        2.3989805336
 H         -6.7225611525        0.2527325455        2.5954212198
 C         -5.9466213475        0.5876049593        0.6373166058
 H         -6.8908161587        0.5162051181        0.0937830681
 H         -5.7956513086        1.6306581704        0.9306482449
 H         -6.7084923504       -3.5552768090       -0.4200833255
 H         -4.9764403836       -3.5816987445       -0.7769244337
 H         -6.8931761900       -1.2335028735       -1.0644416394
 H         -5.9831225490       -2.0755511828       -2.3331860468
 O         -3.7737688354       -1.0877879940       -1.9420302476
 C         -2.6010009450       -0.3560536835       -1.8918290831
 O         -1.7201615276       -0.7478197548       -2.6843729143
 O         -3.5551956113        2.0312070513        0.6677077489
 C         -1.1825078962        1.4608443854       -1.0275710363
 C         -0.2407196301        0.8767796950       -0.0053848103
 C         -0.6140649277        0.7492755860        1.3289822424
 C          0.2612025026        0.2055639471        2.2513093558
 C          1.5173553978       -0.2283288772        1.8652088420
 C          1.8987727954       -0.1101387630        0.5355255710
 C          1.0217444658        0.4482080123       -0.3873681311
 H          1.3165708812        0.5295180800       -1.4250810120
 N          3.1608349147       -0.5762217133        0.1259714307
 S          4.4861575497       -0.2222358060        1.1127637966
 O          4.4991897611       -1.1526131645        2.2131326511
 O          4.4744858835        1.1788284128        1.4701360379
 C          5.8354768220       -0.5747822999        0.0048424895
 C          6.2591680792       -1.8832430742       -0.1299989610
 C          7.2920618162       -2.1646162492       -1.0098781298
 C          7.8795197185       -1.1394690862       -1.7364840267
 C          7.4440165538        0.1689290160       -1.5894223387
 C          6.4107836746        0.4574010697       -0.7117774536
 H          6.0473096032        1.4609608725       -0.5584283986
 H          7.9048985993        0.9638022851       -2.1534507977
 H          8.6840015813       -1.3610648611       -2.4198412782
 H          7.6355724814       -3.1799033273       -1.1254454264
 H          5.7789604566       -2.6451372957        0.4614882285
 H          3.3556679770       -0.3501674354       -0.8399617138
 H          2.2065194616       -0.6531291650        2.5770528174
 H         -0.0377054873        0.1157828372        3.2852514844
 H         -1.5932949677        1.0858434352        1.6342711740
 H         -0.7579247891        1.2529991120       -2.0225407442
 C         -1.3344412889        2.9717155232       -0.9135320218
 C         -0.8895017838        3.7711557041        0.2701226680
 C         -0.1229373726        3.8513626564       -1.0134487970
 H         -0.1832226959        4.7541916152       -1.6020068378
 H          0.8411984370        3.3655057220       -1.0449247649
 H         -1.5041208664        4.6077990760        0.5651187742
 H         -0.4367173760        3.2529201209        1.1006262699
 H         -2.2295460745        3.3235877783       -1.4159798588
