  62
        -98.93966639
 C         -1.0502437049       -1.3252286797        0.4519729947
 C         -2.0068153836       -1.0875195925       -0.5601216911
 C         -3.1104527888       -0.1675427417       -0.2216476441
 C         -3.1387260622        0.4017983063        0.9966426131
 C         -4.1385111338        1.3789902234        1.5624502012
 C         -5.6225270181        1.0953911664        1.2837267343
 C         -6.2561365678        2.0785845208        0.2979651065
 H         -7.3338504316        2.1046558542        0.4739551900
 H         -5.8673645631        3.0775663218        0.5066550762
 C         -6.0368836009        1.7504824407       -1.1777969012
 H         -6.4111201413        2.5938658462       -1.7627701107
 H         -6.6349643221        0.8771140446       -1.4467259277
 C         -4.5851444318        1.4818884005       -1.5796577522
 H         -3.9133030093        2.1834579686       -1.0850343113
 H         -4.4961843063        1.6627856308       -2.6531528120
 C         -4.1293669662        0.0401322959       -1.3086513924
 H         -4.9975407502       -0.5936995603       -1.1061747580
 H         -3.6580674484       -0.3703016726       -2.2072926654
 H         -5.7443588648        0.0726098781        0.9310185055
 H         -6.1587551415        1.1772647081        2.2305408835
 H         -3.9562833467        1.3772136700        2.6397972093
 H         -3.8763194662        2.3793526210        1.2074472670
 O         -2.1722620762        0.1691735076        1.9310341210
 C         -1.1042062776       -0.6708495591        1.6807692235
 O         -0.2816245750       -0.7552209439        2.6165508004
 O         -1.9459407483       -1.6140990963       -1.7026674541
 C          0.1330840582       -2.2361818303        0.1857383434
 C          1.0012479054       -1.6622448195       -0.9092540890
 C          1.6433030549       -2.4385368506       -1.8659830846
 C          2.4543954172       -1.8439440744       -2.8175238962
 C          2.6659416196       -0.4768602076       -2.8216755253
 C          2.0318253999        0.3071598431       -1.8648121606
 C          1.2035220016       -0.2895641192       -0.9289542143
 H          0.6929218449        0.3343102559       -0.2119438220
 N          2.2166275299        1.6973213939       -1.8162094354
 S          2.2814801814        2.4599505251       -0.3285272885
 O          0.9614164683        2.5736364457        0.2404821705
 O          2.9561227115        3.7114503880       -0.6026883449
 C          3.3344324324        1.4183160092        0.6664537373
 C          2.8189298910        0.6383366548        1.6807746160
 C          3.6764534940       -0.1953870885        2.3829454781
 C          5.0241003193       -0.2351391444        2.0636820785
 C          5.5288779752        0.5627356609        1.0475360123
 C          4.6776518781        1.3942912890        0.3400459093
 H          5.0323241259        2.0383824220       -0.4481370003
 H          6.5787136669        0.5356341527        0.8042929696
 H          5.6834790111       -0.8889451278        2.6123635236
 H          3.2733579492       -0.8105538232        3.1718579544
 H          1.7663234155        0.6765327591        1.9159174736
 H          2.9046943700        2.0612269965       -2.4587272539
 H          3.3053150340       -0.0179260274       -3.5598563052
 H          2.9389638622       -2.4568126112       -3.5621610091
 H          1.5029835008       -3.5069607811       -1.8710700083
 H          0.7289369528       -2.2323470638        1.1114959026
 C         -0.3291711771       -3.6521428490       -0.0889151221
 C          0.5215196692       -4.8171297920        0.3166925239
 C         -0.7391817006       -4.5131203742        1.0669363455
 H         -1.5871242959       -5.1702228286        0.9455698608
 H         -0.6579390644       -4.0853591625        2.0559926233
 H          0.5378893051       -5.6894829407       -0.3190900106
 H          1.4615277214       -4.6057084715        0.8035344086
 H         -0.9086161887       -3.7300665728       -1.0012074576
