  62
        -98.94298993
 C          0.2432876065        1.9599766348        0.2763647732
 C         -0.9127204485        2.4261716135       -0.3900746857
 C         -2.1873836748        1.8487610221        0.0529961405
 C         -2.1978127003        0.9579945886        1.0605836259
 C         -3.4108605055        0.2707777621        1.6281501434
 C         -4.1117686372       -0.7167149202        0.6729436362
 C         -5.3055672987       -0.1182905056       -0.0818779561
 H         -6.1052077324       -0.8608443947       -0.1211168844
 H         -5.6918873165        0.7302710571        0.4845097319
 C         -5.0265017461        0.3152539232       -1.5244154176
 H         -5.0159367479       -0.5687611886       -2.1665337003
 H         -5.8531076944        0.9509358894       -1.8504407457
 C         -3.7088733537        1.0560241919       -1.7566068674
 H         -3.7259678655        1.4715333881       -2.7667858880
 H         -2.8788914403        0.3434386366       -1.7350283799
 C         -3.4145884052        2.1811743921       -0.7437967134
 H         -3.2023208157        3.1114253162       -1.2750789552
 H         -4.2698418555        2.3444247085       -0.0895607883
 H         -4.4727546449       -1.5507544588        1.2777283091
 H         -3.3844972192       -1.1177800723       -0.0354236422
 H         -4.1262869512        1.0266337123        1.9592200651
 H         -3.0598028579       -0.2677074243        2.5103511768
 O         -1.0685921071        0.5831939830        1.7195449785
 C          0.1803799623        1.0236254283        1.3088496321
 O          1.1336536125        0.5250230050        1.9352435431
 O         -0.8784268856        3.2756590685       -1.3228892273
 C          1.6072161629        2.3737824844       -0.2386405771
 C          2.3632203298        1.1624442623       -0.7336571113
 C          3.7515564462        1.0882415373       -0.7313493719
 C          4.3944468636       -0.0449022360       -1.1990276125
 C          3.6745177398       -1.1369176472       -1.6499653063
 C          2.2858864604       -1.0727552354       -1.6532454831
 C          1.6487076864        0.0796270176       -1.2265316511
 H          0.5706237995        0.1144411253       -1.2614411994
 N          1.4990031305       -2.1597025636       -2.0720656451
 S          0.1085719561       -2.5517254349       -1.2354252002
 O         -0.1885970307       -3.9031494114       -1.6687437418
 O         -0.9331876672       -1.5860059451       -1.4893397012
 C          0.4964508653       -2.5876814879        0.5067284861
 C         -0.5533704568       -2.4232538949        1.3861097711
 C         -0.3130413478       -2.4983371617        2.7473509267
 C          0.9711484495       -2.7375372378        3.2069360790
 C          2.0139140226       -2.9109044424        2.3123636692
 C          1.7779869626       -2.8432107584        0.9489517590
 H          2.5830832182       -2.9709291908        0.2444252635
 H          3.0144902487       -3.0913160768        2.6711482893
 H          1.1606200288       -2.7820755778        4.2678603124
 H         -1.1255555513       -2.3578225056        3.4423999821
 H         -1.5356991350       -2.2233665337        0.9893297363
 H          2.0122137845       -2.9900144784       -2.3303624004
 H          4.1775442312       -2.0275748771       -1.9951833779
 H          5.4729074055       -0.0856835290       -1.1966338421
 H          4.3293789088        1.9190620969       -0.3603898543
 H          1.4101570473        3.0317699326       -1.0991871610
 C          2.3749004408        3.1570944751        0.8073549829
 C          3.2865001715        4.2770356651        0.4052911653
 C          1.9816964342        4.5778060386        1.0771735223
 H          1.9915586787        4.9314989048        2.0970644538
 H          1.1810554582        4.9899112943        0.4801455988
 H          4.1959760048        4.4281203517        0.9670872102
 H          3.3728746514        4.5014283751       -0.6473471116
 H          2.6555969454        2.5454094149        1.6570245277
