  62
        -98.93708647
 C          0.5441599395        1.5770931698       -0.2207533508
 C          1.3959017698        1.2031156703        0.8472924792
 C          2.5340367699        0.3190743405        0.5375837793
 C          2.6716067098       -0.1289782199       -0.7235158106
 C          3.7900091898       -0.9521039999       -1.3068830006
 C          5.0690780796       -0.1297057897       -1.5306093111
 C          5.4709079796        0.7613566808       -0.3584090114
 H          6.3405354995        1.3457576008       -0.6706113217
 H          4.6643824595        1.4672926607       -0.1527354415
 C          5.8401183800        0.0227245512        0.9263156987
 H          6.2161604200        0.7697923815        1.6299176485
 H          6.6545795601       -0.6742974887        0.7173571688
 C          4.7035163303       -0.7417262488        1.6103190592
 H          4.5203823804       -1.6933690090        1.1192898395
 H          5.0342328005       -0.9735846084        2.6267149992
 C          3.4021827702        0.0426700610        1.7407404992
 H          2.7502453304       -0.4694124289        2.4575468795
 H          3.6147145101        1.0175931012        2.1936791889
 H          5.8835302797       -0.8180784196       -1.7633750910
 H          4.9124491693        0.5129574900       -2.4006953012
 H          3.4396231897       -1.3160119502       -2.2753033604
 H          3.9980773101       -1.8119279496       -0.6783374204
 O          1.7747264395        0.1815949396       -1.7019220706
 C          0.7010530294        1.0365649195       -1.4968629806
 O          0.0081026992        1.2190869190       -2.5141314206
 O          1.2315459399        1.6260058807        2.0234802091
 C         -0.5558329506        2.5653997797        0.1228804791
 C         -1.7282947504        1.8606991497        0.7545030496
 C         -2.3218196603        2.3639401899        1.9062857295
 C         -3.3938501800        1.7113409499        2.4877746299
 C         -3.8829589099        0.5403662996        1.9389359204
 C         -3.2928355700        0.0264106294        0.7883719204
 C         -2.2256597802        0.6897371894        0.1991691900
 H         -1.7835072303        0.2933131492       -0.7032652099
 N         -3.7702584899       -1.1619375409        0.2243590809
 S         -2.8389785099       -2.1223012310       -0.7609092690
 O         -2.7178020102       -1.5361915914       -2.0712486392
 O         -3.5036749096       -3.4093819011       -0.7157706585
 C         -1.2306429797       -2.2964489005       -0.0061560992
 C         -0.1804587498       -2.6143960105       -0.8433011593
 C          1.0628947104       -2.8803966901       -0.2948184995
 C          1.2409112706       -2.8057929496        1.0773948705
 C          0.1814794907       -2.4702060896        1.9042780105
 C         -1.0708715394       -2.2258530100        1.3629336307
 H         -1.9069163794       -1.9772139300        1.9958794408
 H          0.3226381309       -2.4031999092        2.9711062405
 H          2.2092931407       -3.0112281393        1.5050776103
 H          1.8822971503       -3.1477477001       -0.9416909996
 H         -0.3563063100       -2.6409970309       -1.9073518493
 H         -4.4287915997       -1.6870366409        0.7792645512
 H         -4.7130776597        0.0221187896        2.3935252807
 H         -3.8471191799        2.1113688601        3.3816392299
 H         -1.9263957304        3.2637022301        2.3532713292
 H         -0.1196906806        3.2174516200        0.8980192189
 C         -0.9663184310        3.4603176793       -1.0363335411
 C         -2.2356530811        3.2802647888       -1.8074291708
 C         -2.0899705612        4.4409191591       -0.8720410112
 H         -1.9770215415        5.4299943590       -1.2893379915
 H         -2.6498221210        4.4090430293        0.0502976090
 H         -2.2010075114        3.4546787885       -2.8720167108
 H         -2.8929171509        2.4707894987       -1.5293695804
 H         -0.1072763212        3.7967206293       -1.6079740613
