  62
        -98.94485257
 C         -2.2794293910       -1.3165165977        0.1519604600
 C         -2.0995415803       -0.4636491079       -0.9638449300
 C         -2.9498901894        0.7359111828       -0.9967986299
 C         -3.8119232191        0.9678291935        0.0093226701
 C         -4.6590654881        2.1985998342        0.1463458002
 C         -3.9209879772        3.2861824436        0.9409554902
 C         -2.4921515870        3.5437615524        0.4609738801
 H         -2.0827709164        4.3436301821        1.0816370801
 H         -1.8898568877        2.6509413019        0.6454333801
 C         -2.3816005167        3.9381470924       -1.0189391699
 H         -3.3530299065        4.2721636332       -1.3852727298
 H         -1.6956919761        4.7835834318       -1.1078670599
 C         -1.8509286977        2.8348967320       -1.9365130299
 H         -0.9153765580        2.4360683912       -1.5370469600
 H         -1.6267720573        3.2805129018       -2.9094979899
 C         -2.7999989386        1.6550724927       -2.1767435599
 H         -3.7739357684        2.0236851135       -2.5042441299
 H         -2.3751129492        1.0469742324       -2.9808493299
 H         -4.4995561065        4.2097155941        0.8806436102
 H         -3.8787554174        2.9793222735        1.9885299801
 H         -4.9192761479        2.5692692244       -0.8431782998
 H         -5.5746831083        1.9312507349        0.6762597802
 O         -3.9621746598        0.1235821736        1.0607608601
 C         -3.2042758207       -1.0292623670        1.1607927400
 O         -3.4414728612       -1.7105636168        2.1777456200
 H          0.6445663784       -2.0691976401       -1.3325834601
 C          0.9093142185       -1.9670620303       -0.2924905701
 C         -0.0433613717       -2.2039520996        0.6858771199
 C          0.3121122785       -2.0234584599        2.0196768099
 C          1.5943496688       -1.6349891509        2.3618888999
 C          2.5452845390       -1.4024282317        1.3828077799
 C          2.1914143088       -1.5551370214        0.0487489199
 N          3.1291176590       -1.2964430821       -0.9611104002
 S          4.2545905300       -0.0834335530       -0.7627477602
 O          4.6041132003        0.3287982967       -2.1042636902
 O          5.3477857196       -0.5676989139        0.0449171098
 C          3.4433515211        1.2569483876        0.0959637899
 C          4.0925805816        1.8469722571        1.1621664299
 C          3.4910211225        2.9115809275        1.8133952199
 C          2.2533153529        3.3670174286        1.3878667100
 C          1.6137420323        2.7644668591        0.3157266200
 C          2.2103952215        1.6996629686       -0.3408252301
 H          1.7250973910        1.2140875590       -1.1735564001
 H          0.6491870926        3.1207687699       -0.0099880400
 H          1.7814273836        4.1953105789        1.8921575600
 H          3.9875716529        3.3805138771        2.6475036199
 H          5.0520862813        1.4567765263        1.4610624498
 H          2.7459563990       -1.3099111218       -1.8944667801
 H          3.5524862692       -1.1123230925        1.6349488698
 H          1.8586608390       -1.5103876412        3.4008985999
 H         -0.4340831816       -2.1849584193        2.7849985199
 C         -1.4610699120       -2.5863159684        0.3347173200
 H         -1.8961241124       -3.0978954981        1.2031318000
 C         -1.5567128328       -3.5070813683       -0.8647008001
 C         -1.1058492340       -4.9292807287       -0.7288384001
 C         -2.5652671337       -4.6143638675       -0.8579812000
 H         -3.0669751139       -4.8594656171       -1.7822069100
 H         -3.1901381838       -4.7174035470        0.0172748400
 H         -0.6035153844       -5.3942718591       -1.5633113001
 H         -0.7390258842       -5.2451528590        0.2361161999
 H         -1.3818822824       -3.0100196384       -1.8100214800
 O         -1.2772539105       -0.6739295585       -1.8947016000
