  62
        -98.93816134
 C         -2.5365534197       -0.2084978688        0.0149757303
 C         -2.3529115864        0.8147280515        0.9701661564
 C         -2.0944239925        2.1737621057        0.4582920125
 C         -2.0642505750        2.3673168268       -0.8733776572
 C         -1.8090352700        3.6446982997       -1.6298749530
 C         -0.3239495934        4.0343616821       -1.6571668332
 C          0.3915555715        3.9295002563       -0.3133236963
 H          0.3504368245        2.8950615247        0.0351442798
 H          1.4472145155        4.1591471076       -0.4831726255
 C         -0.1203086877        4.8722011190        0.7737972798
 H          0.5474508613        4.7632856260        1.6324405178
 H         -0.0404780433        5.9022521579        0.4185092615
 C         -1.5528812628        4.6352286409        1.2586160389
 H         -2.2798451568        5.0449317111        0.5624060955
 H         -1.6736237540        5.1875307498        2.1952112202
 C         -1.8863196570        3.1789884524        1.5649600114
 H         -2.8025244764        3.1465107251        2.1672583585
 H         -1.1041049928        2.7584130088        2.2090038853
 H         -0.2427542670        5.0540623818       -2.0388100982
 H          0.1884872453        3.3662556922       -2.3535251190
 H         -2.1405592432        3.4688277102       -2.6558125990
 H         -2.4118143712        4.4494548485       -1.2194200227
 O         -2.2556966816        1.3485308470       -1.7603126739
 C         -2.4538565616        0.0434329761       -1.3531598470
 O         -2.5552051582       -0.7788965094       -2.2846660566
 O         -2.3986498323        0.6056117405        2.2155314980
 C         -2.7125116955       -1.6387012874        0.4874210597
 C         -1.5323533453       -2.4741395640        0.0497892979
 C         -1.6389118668       -3.8009290372       -0.3465493042
 C         -0.5092229260       -4.5110087052       -0.7175703053
 C          0.7401369997       -3.9198290298       -0.7071982603
 C          0.8566801236       -2.5887698098       -0.3172483660
 C         -0.2723682935       -1.8903191767        0.0731891329
 H         -0.1699139862       -0.8641690948        0.3937538325
 N          2.1006483445       -1.9387504582       -0.3538819437
 S          2.3351622315       -0.4751342776        0.4404448971
 O          2.0534176402       -0.6137996470        1.8537066950
 O          1.6221100492        0.5609481967       -0.2618890908
 C          4.0895941494       -0.2784703495        0.1925218077
 C          4.5355728836        0.3389985522       -0.9602886538
 C          5.8999973525        0.4635558980       -1.1693318222
 C          6.7910128386       -0.0302947658       -0.2281191673
 C          6.3289549603       -0.6453795704        0.9257981451
 C          4.9656562444       -0.7726547539        1.1407266252
 H          4.5604886326       -1.2311844351        2.0284750145
 H          7.0238212806       -1.0247192806        1.6575475678
 H          7.8522252718        0.0677940812       -0.3935741338
 H          6.2621416327        0.9446489462       -2.0635307155
 H          3.8040120275        0.7132159997       -1.6577203352
 H          2.8925743831       -2.5604835510       -0.2765177897
 H          1.6162787008       -4.4737403586       -1.0067277671
 H         -0.6049500660       -5.5422068673       -1.0221380067
 H         -2.6052578867       -4.2777988256       -0.3671742855
 H         -2.6985436950       -1.5863119632        1.5876652257
 C         -4.0463464953       -2.2000739728        0.0413832722
 C         -4.7703857938       -3.2016928483        0.8893219287
 C         -5.2833123179       -1.7979045995        0.7856212562
 H         -6.1868250790       -1.6153886937        0.2237361627
 H         -5.1566813128       -1.1414900704        1.6344779438
 H         -5.3273091905       -3.9854876257        0.3984362797
 H         -4.3054045525       -3.5015693788        1.8164514679
 H         -4.1170080516       -2.2902214962       -1.0365928937
