  62
        -98.94367950
 C          1.1375081990        1.4855622593        0.2246553403
 C          1.5905313818        0.4418045980        1.0717917271
 C          2.4616857150       -0.5707611523        0.4620705105
 C          2.7456992916       -0.4818388565       -0.8497470495
 C          3.6316532518       -1.4317870690       -1.6016247154
 C          5.0892978019       -0.9510913996       -1.6076079678
 C          5.6154237874       -0.5669490076       -0.2246140334
 H          6.6609073573       -0.2747460741       -0.3440685444
 H          5.0736208355        0.3132253295        0.1290989410
 C          5.5113811223       -1.6821747483        0.8250248958
 H          6.4517940230       -1.7303674622        1.3779629855
 H          5.3767989904       -2.6445082728        0.3299865842
 C          4.3986513031       -1.4815250665        1.8553146137
 H          4.4749034627       -0.4792235369        2.2840612357
 H          4.5549424100       -2.1979023305        2.6660597083
 C          2.9657343374       -1.6786211486        1.3439511568
 H          2.8824476157       -2.6422097428        0.8366215232
 H          2.3052460608       -1.6903792825        2.2154346999
 H          5.7116382532       -1.7419828996       -2.0303630543
 H          5.1622748528       -0.0767999152       -2.2587459553
 H          3.5639015316       -2.4183718379       -1.1466269125
 H          3.2696489345       -1.4928539023       -2.6297765185
 O          2.2876028705        0.5220425775       -1.6358069589
 C          1.4678787470        1.5280626015       -1.1319588030
 O          1.1392713922        2.3716625871       -1.9848424372
 H         -1.0760283278        1.1550750520       -1.1283520028
 C         -1.7010805907        1.2925049103       -0.2589198066
 C         -1.2147148163        1.9703152172        0.8498493643
 C         -2.0488313380        2.1311779153        1.9504942861
 C         -3.3394411598        1.6328085906        1.9354545543
 C         -3.8099656583        0.9333923027        0.8384877517
 C         -2.9789876266        0.7539004454       -0.2606288444
 N         -3.3932399739       -0.0023187498       -1.3771189556
 S         -2.4503728414       -1.3433643794       -1.7389910788
 O         -1.1797669451       -0.9360332513       -2.2792686814
 O         -3.2827764015       -2.1570498407       -2.5987822751
 C         -2.2372954964       -2.1352513080       -0.1563170509
 C         -1.1539685038       -1.7872825065        0.6240303399
 C         -1.0576377662       -2.3008614096        1.9072242837
 C         -2.0374804369       -3.1588526633        2.3817854296
 C         -3.1129742056       -3.5121589726        1.5799863813
 C         -3.2227479003       -2.9881779354        0.3022569783
 H         -4.0432846146       -3.2324654848       -0.3530193464
 H         -3.8695905301       -4.1847080492        1.9507364126
 H         -1.9601063261       -3.5531720252        3.3826280350
 H         -0.2245665751       -2.0038749618        2.5248429708
 H         -0.4039991354       -1.1209147210        0.2266265751
 H         -4.3655194027       -0.2777405652       -1.3403364799
 H         -4.8078229605        0.5219854089        0.8330062212
 H         -3.9786073363        1.7711428589        2.7936874625
 H         -1.6735279143        2.6365510446        2.8278887142
 C          0.1995184785        2.4976515544        0.8593420377
 H          0.5136450401        2.5606814590        1.9140682862
 C          0.3052834294        3.8952740607        0.2687753089
 C         -0.7151837352        4.4648982072       -0.6654303415
 C         -0.6100065498        4.9895040100        0.7332756843
 H         -0.1963368298        5.9748155069        0.8851711206
 H         -1.3973864000        4.7273059396        1.4229480495
 H         -1.5642222504        3.8503435651       -0.9228048720
 H         -0.3603305583        5.0712875739       -1.4844911980
 H          1.3363190391        4.1730523540        0.0755306973
 O          1.2736682591        0.3612079001        2.2894351161
