  62
        -98.93662439
 C         -0.6024232144       -1.8926899249        0.3041048545
 C         -1.2227070771       -0.7687588547        0.8979629379
 C         -2.5065211950       -0.3340367881        0.3185772382
 C         -2.9938823302       -0.9899467817       -0.7498734595
 C         -4.2704039621       -0.7348033331       -1.5106882940
 C         -4.5870847314        0.7314491758       -1.8447926524
 C         -5.7732836193        1.2909743034       -1.0576127010
 H         -6.2015753563        2.1256553737       -1.6169988589
 H         -6.5413017403        0.5176167908       -0.9898935932
 C         -5.4401743243        1.7971912863        0.3447182805
 H         -4.8719561629        2.7261517477        0.2661802411
 H         -6.3834012002        2.0336891992        0.8427489097
 C         -4.6529045339        0.8224511375        1.2231076693
 H         -4.8274735474        1.0975589036        2.2653959036
 H         -5.0264204379       -0.1929937101        1.0970307637
 C         -3.1371969823        0.8616103418        0.9775356492
 H         -2.8746533781        1.7519926845        0.4001668122
 H         -2.6112594193        0.9578658044        1.9320713711
 H         -3.7022083436        1.3456866294       -1.6861662639
 H         -4.8322457959        0.7851705291       -2.9067185045
 H         -4.1713729645       -1.3133247501       -2.4319043599
 H         -5.1007188269       -1.1764235228       -0.9542398916
 O         -2.3507239687       -2.0576679031       -1.3023913155
 C         -1.1447264801       -2.5283129730       -0.8119267701
 O         -0.6802216444       -3.4937194385       -1.4466354681
 O         -0.7258186986       -0.1503059067        1.8778944788
 C          0.7422845065       -2.3456073766        0.8485001236
 C          1.7987247008       -1.9414207943       -0.1500915099
 C          2.5068905231       -2.8424314928       -0.9334927800
 C          3.4202751185       -2.3843817661       -1.8675103363
 C          3.6585763975       -1.0313574697       -2.0231052639
 C          2.9577033305       -0.1210501502       -1.2388290549
 C          2.0307825833       -0.5809027466       -0.3188929806
 H          1.4801370168        0.1270201571        0.2839071018
 N          3.1620046479        1.2606037431       -1.3737596681
 S          3.2142357973        2.2198261326       -0.0009402559
 O          3.9757683228        3.3830475928       -0.4091761151
 O          3.7359573487        1.4928188189        1.1327310914
 C          1.5357511524        2.7315999574        0.2902106919
 C          0.8170360675        3.2560942939       -0.7658604178
 C         -0.4597052198        3.7387465373       -0.5303487559
 C         -0.9896081808        3.6953687201        0.7507372725
 C         -0.2580907256        3.1585725025        1.7979299294
 C          1.0182803678        2.6720021457        1.5679833929
 H          1.6161669156        2.2393642746        2.3542151239
 H         -0.6753840967        3.1108311538        2.7905584607
 H         -1.9779865716        4.0858890613        0.9378416197
 H         -1.0352198154        4.1514052973       -1.3438415604
 H          1.2662828999        3.2815680525       -1.7448527637
 H          3.8806708780        1.5205820168       -2.0339221186
 H          4.3776948862       -0.6782350795       -2.7468061713
 H          3.9598988200       -3.0927845434       -2.4778465988
 H          2.3326044088       -3.8998797382       -0.8241800281
 H          0.9027551855       -1.7532863710        1.7607052064
 C          0.7571950547       -3.8135479783        1.2115170053
 C          1.8342448410       -4.3345427664        2.1142032821
 C          0.4264393334       -4.2217097237        2.6145816267
 H         -0.1413538133       -5.1273113235        2.7668369245
 H          0.1968231348       -3.4383959060        3.3221831944
 H          2.2353309699       -5.3186992803        1.9259244077
 H          2.5618712664       -3.6255843382        2.4803555423
 H          0.4063469413       -4.4549403080        0.4123564139
