  62
        -98.93512589
 C         -2.1283287876       -1.0746040486        0.0972626648
 C         -2.7076118558       -0.2035540465        1.0483257373
 C         -3.1150074393        1.1169061354        0.5506710062
 C         -2.8868001659        1.4412110428       -0.7349793150
 C         -3.1708831531        2.7656130868       -1.3935406904
 C         -4.6524761054        3.1764483171       -1.4964913903
 C         -5.1446497997        4.0622953581       -0.3452869582
 H         -5.8009007867        4.8340056790       -0.7525090230
 H         -4.2880480492        4.5778754590        0.0906749431
 C         -5.9278939987        3.3460344096        0.7588698772
 H         -6.9445194481        3.1550187189        0.4081251570
 H         -5.9962512181        4.0230601216        1.6130087628
 C         -5.3483205931        2.0120507258        1.2295635645
 H         -5.5507529696        1.2395490083        0.4840613708
 H         -5.8766887396        1.7120416550        2.1365709042
 C         -3.8318249333        2.0300900024        1.5027267799
 H         -3.6294148667        1.6524483398        2.5071579304
 H         -3.4385649990        3.0432149767        1.4308969736
 H         -5.2712265164        2.2838654735       -1.5838930368
 H         -4.7591928316        3.7362201866       -2.4269473682
 H         -2.7514212048        2.6832004908       -2.3985123203
 H         -2.6130899641        3.5432158507       -0.8660465935
 O         -2.3031301761        0.5801851822       -1.6141098337
 C         -1.9105958843       -0.6914671025       -1.2265482891
 O         -1.3912049479       -1.3686116590       -2.1341214661
 O         -2.8587280956       -0.5077938975        2.2630898224
 C         -1.6522614030       -2.4458845730        0.5429526295
 C         -0.1660151072       -2.5554654400        0.3042730114
 C          0.4423191703       -3.6457960072       -0.3026438810
 C          1.8069276804       -3.6476427703       -0.5393982516
 C          2.5930555391       -2.5696827218       -0.1766398991
 C          1.9965475553       -1.4832163437        0.4470623068
 C          0.6343976449       -1.4880078427        0.6925403898
 H          0.1753428223       -0.6296735541        1.1700442192
 N          2.7919359380       -0.3652772055        0.8057318646
 S          3.2145936525        0.6460761181       -0.4857969462
 O          2.2964018963        1.7673493148       -0.5262513387
 O          3.3402294516       -0.1397081134       -1.6856514420
 C          4.8221757180        1.2098603353        0.0386166974
 C          4.9514990080        2.4357533398        0.6608657912
 C          6.2044803789        2.8370793543        1.0976003012
 C          7.2994307791        2.0077248498        0.9096664328
 C          7.1534287492        0.7788406764        0.2832094311
 C          5.9037088913        0.3730410554       -0.1559551636
 H          5.7433942630       -0.5678995268       -0.6557110519
 H          8.0073327054        0.1372660418        0.1366481265
 H          8.2729721421        2.3219340301        1.2514018456
 H          6.3207368776        3.7930477336        1.5824012306
 H          4.0742539929        3.0512030370        0.7786636407
 H          2.3207219069        0.2145873329        1.4887083397
 H          3.6502515423       -2.5499129452       -0.3828007827
 H          2.2613689602       -4.4985131842       -1.0237900139
 H         -0.1551300574       -4.4893802943       -0.6076703515
 H         -1.8340574441       -2.4822919304        1.6275872071
 C         -2.4590764765       -3.5381591130       -0.1256387057
 C         -2.6615382896       -4.8556660719        0.5596286372
 C         -3.8021396243       -3.8919491626        0.4370044444
 H         -4.6035002604       -4.1217186821       -0.2489797617
 H         -4.1234178713       -3.3610302974        1.3212582748
 H         -2.6829252393       -5.7513762814       -0.0424501231
 H         -2.2125153022       -4.9869061281        1.5323598666
 H         -2.3542469882       -3.5285917640       -1.2048563433
