  62
        -98.94415398
 C         -2.5131267762       -1.1624846875       -0.0677161282
 C         -3.2193911985       -0.4004202881        0.8926568934
 C         -4.0271153304        0.7046063993        0.3647267541
 C         -4.0660604186        0.9281105179       -0.9618656067
 C         -4.8619645856        2.0005897037       -1.6552342695
 C         -4.1622506227        3.3659052105       -1.7014848453
 C         -4.1028353352        4.1114387057       -0.3676489201
 H         -3.7832112521        5.1325947324       -0.5844190033
 H         -5.1036743242        4.1676915132        0.0613732443
 C         -3.1363642556        3.4997954296        0.6564457321
 H         -2.5307993039        4.2906555684        1.1054381708
 H         -2.4477686770        2.8214215710        0.1463862487
 C         -3.8176679770        2.7467511489        1.7994892770
 H         -3.0412876061        2.3283632844        2.4460290304
 H         -4.4095964577        3.4444210309        2.3959463340
 C         -4.7269768242        1.5970979348        1.3449843479
 H         -4.9818338302        0.9952134566        2.2207627168
 H         -5.6455711531        1.9928821030        0.9127005940
 H         -4.7069197431        3.9872409832       -2.4159046311
 H         -3.1494319163        3.2263934673       -2.0866109424
 H         -5.0156538194        1.6583273189       -2.6807535441
 H         -5.8345126513        2.1047317254       -1.1736366986
 O         -3.3757032323        0.1690469089       -1.8533202341
 C         -2.5630743112       -0.8744997344       -1.4319555497
 O         -1.9567287998       -1.4549595275       -2.3509107950
 H         -0.3093554767       -0.0357987041        0.7764280757
 C          0.3321667896       -0.7857084100        0.3282004026
 C         -0.1925553421       -2.0423513528        0.0494329653
 C          0.6469798022       -2.9983834377       -0.5061952961
 C          1.9664689914       -2.6916189865       -0.7922120663
 C          2.4776885312       -1.4345474678       -0.5295532997
 C          1.6512994432       -0.4740338810        0.0396611799
 N          2.1621660266        0.8101564339        0.3064995495
 S          3.5486369305        0.9116609884        1.2523930477
 O          3.6398096519       -0.1977614725        2.1734256393
 O          3.5094505603        2.2332235467        1.8396527537
 C          4.8810806869        0.8386790825        0.0744304091
 C          5.8529672153       -0.1352745455        0.1944108489
 C          6.8860834450       -0.1676811605       -0.7293769309
 C          6.9285394608        0.7693125469       -1.7504524821
 C          5.9458794710        1.7426695402       -1.8551537269
 C          4.9112588981        1.7817030117       -0.9341898627
 H          4.1305778772        2.5228252600       -0.9776463700
 H          5.9821546704        2.4694737650       -2.6506545624
 H          7.7321785495        0.7412508071       -2.4692274519
 H          7.6511214614       -0.9231440782       -0.6496081872
 H          5.7746052730       -0.8463607345        1.0012275136
 H          1.4648389637        1.4568431619        0.6463993751
 H          3.5019563547       -1.1903391327       -0.7589111215
 H          2.6050078764       -3.4431132311       -1.2307226529
 H          0.2675640432       -3.9839300649       -0.7196990896
 C         -1.6361197808       -2.3078282454        0.4025311341
 H         -1.7190404820       -2.3063822903        1.5004144316
 C         -2.1583607208       -3.6287822303       -0.1215424669
 C         -1.9410212794       -4.8901783509        0.6580705806
 C         -3.3079283851       -4.2811309007        0.5842102396
 H         -4.0638522827       -4.7745614400       -0.0079402291
 H         -3.6967378956       -3.7848103043        1.4615983377
 H         -1.4029863229       -4.8149164024        1.5910664776
 H         -1.7605908613       -5.8066229567        0.1167905375
 H         -2.1399536683       -3.6828454615       -1.2041023869
 O         -3.1727951546       -0.6294784135        2.1323591678
