  62
        -98.93156292
 C          2.2360731858        0.8182147774        0.1272569384
 C          3.5455283583        1.2616211102        0.4374430586
 C          4.6587449788        0.5683769632       -0.2335069089
 C          4.3813383502       -0.4438168772       -1.0730095905
 C          5.3587190791       -1.3114795794       -1.8169386197
 C          5.6735758593       -2.5865695958       -1.0162763300
 C          6.8161603086       -2.4508123476       -0.0104150840
 H          7.7619354118       -2.3737927786       -0.5507796778
 H          6.8462061934       -3.3739320391        0.5729419180
 C          6.7045884659       -1.2648311255        0.9511468837
 H          7.3315014732       -1.4774055567        1.8192656062
 H          5.6770121738       -1.1768652670        1.3087156257
 C          7.1555967129        0.0635662948        0.3259075239
 H          7.6745851365       -0.1412066712       -0.6102300125
 H          7.8820970382        0.5447666560        0.9839000589
 C          6.0357338946        1.0857477014        0.0826532346
 H          6.3432496682        1.7686994193       -0.7164284216
 H          5.9001544333        1.6977090853        0.9800240890
 H          5.9321177353       -3.3840388318       -1.7158877473
 H          4.7596746588       -2.8900612145       -0.4988850466
 H          4.8703145109       -1.5988972094       -2.7504365059
 H          6.2641780803       -0.7592900635       -2.0504942943
 O          3.1093197826       -0.8623505877       -1.3184947211
 C          2.0080835715       -0.2597596022       -0.7283372492
 O          0.9210886517       -0.7796114046       -1.0446163315
 H         -1.5940840477        1.1756432799        0.1620976789
 C         -1.2388556770        0.4879271814        0.9093748190
 C          0.0807321022        0.5252408029        1.3307353353
 C          0.5055456858       -0.3976694311        2.2832631673
 C         -0.3638150013       -1.3470340063        2.7822154358
 C         -1.6760230821       -1.3922283029        2.3457801852
 C         -2.1153272346       -0.4670643733        1.4062624775
 N         -3.4640027149       -0.4659970891        1.0027424754
 S         -3.9252423215       -0.1267318241       -0.5836426193
 O         -3.4254143963       -1.1366798146       -1.4906403159
 O         -3.6038326794        1.2417875655       -0.8964521876
 C         -5.6927426084       -0.2942264895       -0.4020114732
 C         -6.3219419938       -1.4480398683       -0.8283856754
 C         -7.6920504341       -1.5686882066       -0.6548512234
 C         -8.4053765214       -0.5402028407       -0.0582924138
 C         -7.7601710586        0.6128569915        0.3639686284
 C         -6.3911450197        0.7397979977        0.1921942516
 H         -5.8485905773        1.6195662518        0.4961922483
 H         -8.3184816378        1.4116392231        0.8249848565
 H         -9.4712363546       -0.6366212159        0.0757198572
 H         -8.1966000331       -2.4623673446       -0.9852378589
 H         -5.7278622514       -2.2178727290       -1.2943889012
 H         -3.9498838605       -1.2969755256        1.3148291186
 H         -2.3543011363       -2.1397627717        2.7291437735
 H         -0.0176771706       -2.0634965823        3.5122961360
 H          1.5349100460       -0.3685291565        2.6153955757
 C          1.0769441137        1.5270518748        0.8033329556
 H          1.5348079044        2.0368128332        1.6683187865
 C          0.4365350921        2.6122347671       -0.0488925141
 C          1.2131151532        3.3406311904       -1.1033768884
 C          0.1125412735        2.4036740586       -1.4967483898
 H         -0.8119858082        2.8131419572       -1.8782132159
 H          0.3720997785        1.4518952812       -1.9345024551
 H          2.2330799664        3.0311827811       -1.2797447101
 H          1.0517821507        4.4020332617       -1.2166847939
 H         -0.2703909121        3.2085862036        0.5205600343
 O          3.7763253726        2.1942269874        1.2530663048
