  62
        -98.93298588
 C         -1.8464025395       -1.1232352608       -0.1474228883
 C         -2.3085067797        0.1688550386       -0.4971009103
 C         -3.7705121197        0.3605611685       -0.4680837307
 C         -4.5661172196       -0.6652102711       -0.1180589592
 C         -6.0612653896       -0.6081097211        0.0171422105
 C         -6.4471410498        0.0778847109        1.3430819495
 C         -7.1726447500        1.4128093305        1.1734622773
 H         -8.2049978599        1.2200724700        0.8740397375
 H         -7.1984150801        1.8978613220        2.1515629266
 C         -6.5620846500        2.3790580191        0.1536260159
 H         -7.0103137102        3.3582423693        0.3352952244
 H         -6.8581468199        2.0845774375       -0.8543639337
 C         -5.0349584800        2.5215601093        0.1943848058
 H         -4.7873110102        3.5720969091        0.0289002842
 H         -4.6491332101        2.2568840609        1.1790850663
 C         -4.2861113498        1.7116872778       -0.8806157429
 H         -4.9194110197        1.6066922463       -1.7662224728
 H         -3.3942378199        2.2707974274       -1.1796790436
 H         -5.5374896199        0.2283334019        1.9281325293
 H         -7.0874718598       -0.5875446583        1.9240243504
 H         -6.4863108596       -0.0729966524       -0.8291454703
 H         -6.4272636095       -1.6349611012        0.0006794821
 O         -4.0821356795       -1.8838491105        0.2378872227
 C         -2.7214465794       -2.1399083703        0.2437396132
 O         -2.4189656693       -3.2904735397        0.6167194950
 H          1.6230558704        0.1388986780       -1.2185238499
 C          1.4144201803        0.3418713996       -0.1818638002
 C          0.4316930603       -0.3607936895        0.4962105407
 C          0.1744557401       -0.0330391275        1.8255391802
 C          0.8718366400        0.9804258335        2.4521488087
 C          1.8589046199        1.6744907826        1.7736393277
 C          2.1264409301        1.3533430706        0.4494221783
 N          3.1191162901        2.0450810997       -0.2684827527
 S          4.2905250203        1.1809368586       -1.0898337213
 O          5.3181198702        2.1510493982       -1.3961376527
 O          3.7120145904        0.4870480468       -2.2107692603
 C          4.8961842603        0.0157110905        0.1173255106
 C          4.2966906904       -1.2227873094        0.2277785624
 C          4.7205872105       -2.0850307978        1.2267287338
 C          5.7317311103       -1.6969554764        2.0921986933
 C          6.3278869602       -0.4513553465        1.9652362814
 C          5.9033549202        0.4173584919        0.9732236900
 H          6.3430815001        1.3918594118        0.8348377386
 H          7.1171389301       -0.1546611554        2.6370374410
 H          6.0575382004       -2.3712395951        2.8684145043
 H          4.2569481406       -3.0536025877        1.3257623252
 H          3.5171062805       -1.4915102606       -0.4660507572
 H          3.5427183999        2.8049856505        0.2442699562
 H          2.4058001198        2.4678798535        2.2603634266
 H          0.6519343798        1.2297502451        3.4792995083
 H         -0.5957655998       -0.5774429068        2.3555891810
 C         -0.3674467295       -1.4714895206       -0.1396310576
 H         -0.2894611094       -2.3563779996        0.5140927437
 C          0.1717364107       -1.8894025526       -1.4998084369
 C         -0.7079747691       -2.5443523843       -2.5211412660
 C         -0.1822963293       -1.1623712646       -2.7605118681
 H          0.5902439908       -1.0226577856       -3.5032904682
 H         -0.8633379794       -0.3296920046       -2.6816348294
 H         -1.7551974591       -2.6596966441       -2.2817538159
 H         -0.3006869190       -3.3594219551       -3.1003629847
 H          1.1864338407       -2.2718728924       -1.4349886463
 O         -1.5545652698        1.1223203082       -0.8215586917
