  62
        -98.94414086
 C         -2.1898970206       -1.1195027009        0.2983482517
 C         -2.3104735139       -0.0325634749       -0.6012485706
 C         -3.1035635491        1.1084473295       -0.1241546253
 C         -3.6303996367        1.0963375117        1.1128798787
 C         -4.4268338111        2.2011040283        1.7521279270
 C         -5.9163674865        2.1951694485        1.3818692630
 C         -6.2343040712        2.6421400735       -0.0455142678
 H         -7.3132132844        2.8005069610       -0.0984928884
 H         -5.7543342936        3.6018650097       -0.2396265053
 C         -5.8299706584        1.6334282136       -1.1296003682
 H         -5.6627519198        0.6553402464       -0.6729278443
 H         -6.6485217298        1.5183172551       -1.8435190921
 C         -4.5859718480        2.0246913282       -1.9272398227
 H         -4.7851568736        2.9366036048       -2.4945725753
 H         -4.3694942376        1.2249751894       -2.6400318594
 C         -3.3324085506        2.2480329843       -1.0712358213
 H         -2.4661783647        2.3080588051       -1.7353352252
 H         -3.4127261302        3.1864831916       -0.5226403717
 H         -6.3125314466        1.1905614654        1.5461338509
 H         -6.4252939073        2.8706817708        2.0731908384
 H         -4.3392803183        2.0603687257        2.8316623252
 H         -3.9884674933        3.1652223848        1.4919933907
 O         -3.4723657322        0.0448027295        1.9588622030
 C         -2.7659643349       -1.0801437393        1.5730665371
 O         -2.7211096175       -1.9738450220        2.4417465464
 H          0.2372432221       -0.8262940191       -1.5190872455
 C          0.7599073456       -1.2647173874       -0.6819688266
 C          0.0740446927       -2.1027001500        0.1859956324
 C          0.7542449189       -2.6257039910        1.2797279383
 C          2.0850843500       -2.3145306191        1.4969518683
 C          2.7607813067       -1.4683106984        0.6355713999
 C          2.0862626994       -0.9335778604       -0.4536104535
 N          2.7578458063       -0.0366821196       -1.3139510776
 S          3.2323422028        1.4101920193       -0.5920060697
 O          2.3734601673        1.7521570858        0.5199385264
 O          3.3096527563        2.3742358926       -1.6681713409
 C          4.8784769250        1.0655006247       -0.0061657135
 C          5.1532631938        1.1207286638        1.3461295878
 C          6.4418475343        0.8492293033        1.7794933355
 C          7.4270323979        0.5296254350        0.8576520210
 C          7.1352110145        0.4810099769       -0.4975478775
 C          5.8494267114        0.7520663076       -0.9373400901
 H          5.5805027689        0.7319484145       -1.9801679064
 H          7.9044043728        0.2331713883       -1.2110846652
 H          8.4284894071        0.3182863673        1.1977736956
 H          6.6702583991        0.8874530421        2.8325379855
 H          4.3530767071        1.3695132796        2.0249848840
 H          2.2175602695        0.1748657757       -2.1424879740
 H          3.7943365333       -1.2130418599        0.8045099623
 H          2.5996179704       -2.7294114911        2.3502554504
 H          0.2228645286       -3.2614032154        1.9733523308
 C         -1.3964570350       -2.3812885574       -0.0147633678
 H         -1.7037558670       -3.1183019663        0.7388901800
 C         -1.6904083325       -2.9501009330       -1.3882827275
 C         -1.3522370474       -4.3832255193       -1.6642935135
 C         -2.7848964415       -3.9612913476       -1.5409096892
 H         -3.3943525180       -3.9293291979       -2.4315977958
 H         -3.3273648314       -4.2487984478       -0.6518047013
 H         -0.9753494612       -4.6444172648       -2.6411046337
 H         -0.9230737573       -4.9585806986       -0.8580078599
 H         -1.5617822579       -2.2368202533       -2.1912607302
 O         -1.7929611647        0.0120946451       -1.7503986845
