  62
        -98.94420908
 C          1.9823809833        1.3044764820        0.0058455044
 C          2.3250735107        0.3286879500       -0.9612680559
 C          3.7369331114       -0.0835497857       -0.9824897793
 C          4.6045327271        0.4752261301       -0.1198278462
 C          6.0530832131        0.1037964505        0.0041093437
 C          6.2529003946       -1.0070228776        1.0447512931
 C          5.3090282516       -2.1966711475        0.8681294396
 H          5.5618179578       -2.9292858905        1.6377085241
 H          4.2836093262       -1.8718052894        1.0601727777
 C          5.3782127197       -2.8625651153       -0.5132869194
 H          6.3038690790       -2.5788992152       -1.0154992199
 H          5.4015433288       -3.9460378015       -0.3785919630
 C          4.1908761978       -2.5535307414       -1.4272262734
 H          3.2568290450       -2.7502296668       -0.8941551527
 H          4.2310787205       -3.2379693663       -2.2789810560
 C          4.1347450048       -1.1269590537       -1.9882216600
 H          5.0918903039       -0.8746727481       -2.4490212429
 H          3.3633638253       -1.1060832705       -2.7636302171
 H          7.2875833304       -1.3501642775        0.9892821372
 H          6.0877056291       -0.5845437449        2.0385540288
 H          6.4245624335       -0.2212560589       -0.9656696423
 H          6.6095742363        0.9882255984        0.3186840531
 O          4.2416506422        1.4197763630        0.7845535424
 C          2.9273796575        1.8404988643        0.8848317729
 O          2.7270186408        2.6881848943        1.7771789846
 H         -1.0138533625       -0.0474789077       -1.1347377407
 C         -1.0108363464       -0.1907081250       -0.0659310909
 C         -0.2695605145        0.6590184018        0.7405649463
 C         -0.2617344730        0.4347953936        2.1141856844
 C         -0.9784324718       -0.6116519456        2.6650467965
 C         -1.7127980817       -1.4619777307        1.8560746293
 C         -1.7177163024       -1.2512201697        0.4843995125
 N         -2.4732432310       -2.1113386414       -0.3441870615
 S         -4.1330093213       -2.0206481442       -0.1325285127
 O         -4.4745414122       -2.5905070587        1.1457912257
 O         -4.7155924989       -2.6544067376       -1.2933033129
 C         -4.4786540551       -0.2711006540       -0.1368996604
 C         -4.4452304848        0.4267878276        1.0535551009
 C         -4.6226365040        1.8007705170        1.0278037656
 C         -4.8278586554        2.4492491312       -0.1800402142
 C         -4.8618973492        1.7329568222       -1.3666919458
 C         -4.6784757230        0.3600220487       -1.3484214370
 H         -4.7005580409       -0.2344103534       -2.2479026525
 H         -5.0262831899        2.2401723716       -2.3039196001
 H         -4.9622634685        3.5193317977       -0.1974661704
 H         -4.5961023610        2.3599708408        1.9492693935
 H         -4.2875798368       -0.1139183378        1.9721567551
 H         -2.2506297570       -2.0007194680       -1.3238237144
 H         -2.2866001227       -2.2778913267        2.2652488939
 H         -0.9643059345       -0.7693672548        3.7329546609
 H          0.3230899345        1.0903834324        2.7446418396
 C          0.5503970088        1.7901136416        0.1705174088
 H          0.5913659360        2.5892605989        0.9221142487
 C         -0.0186417325        2.3570356860       -1.1139068112
 C         -1.3150477608        3.1071234134       -1.0636794042
 C         -0.0334386312        3.8404643050       -1.3191005860
 H          0.1539472738        4.2237896764       -2.3109542557
 H          0.3695831377        4.4586529344       -0.5302785939
 H         -2.0127478379        2.9876011430       -1.8780773662
 H         -1.7843995778        3.2215794535       -0.0983986837
 H          0.1778844960        1.7407401615       -1.9819015137
 O          1.5075021762       -0.1769829356       -1.7745131491
