  62
        -98.94600488
 C          2.0280059683       -0.1605864644       -0.5126000435
 C          1.6268994543        0.9812332128       -1.2503719689
 C          1.6305568760        2.2578378637       -0.5282560255
 C          1.9485959005        2.2804892709        0.7783842018
 C          2.0037298057        3.5010986402        1.6565968280
 C          0.6386360625        3.9120342973        2.2252345962
 C         -0.3058427145        4.5765046791        1.2229748086
 H         -1.1210759965        5.0206119514        1.7976870159
 H          0.2164932083        5.3878805276        0.7140354925
 C         -0.9028033005        3.6124413224        0.1883537843
 H         -0.7967319554        2.5865126836        0.5516854237
 H         -1.9753029752        3.8010560194        0.0921157741
 C         -0.2953221592        3.7300314542       -1.2099000971
 H         -0.5078679185        4.7220227741       -1.6152888472
 H         -0.7778858889        2.9941224487       -1.8568283934
 C          1.2196753453        3.4948822075       -1.2705962129
 H          1.5024435985        3.3611460784       -2.3179828522
 H          1.7486788558        4.3616600198       -0.8741677803
 H          0.1547157740        3.0257695106        2.6445704358
 H          0.8213708839        4.6128656944        3.0435134578
 H          2.6645782035        3.2539978995        2.4903862154
 H          2.4370777371        4.3355135008        1.1037788794
 O          2.2858323708        1.1597467831        1.4651787110
 C          2.3020948794       -0.0874073213        0.8552587509
 O          2.5890488612       -1.0178708643        1.6319797480
 O          1.2770824020        0.9359849351       -2.4610831336
 C          1.9869426705       -1.5090650110       -1.2156881426
 C          1.1729922881       -2.4563718198       -0.3709155161
 C          1.6280192492       -3.6694844093        0.1242901267
 C          0.8290056019       -4.4124542827        0.9775250804
 C         -0.4131506376       -3.9527465757        1.3735672113
 C         -0.8816099568       -2.7423589608        0.8717325868
 C         -0.1061789723       -2.0359032758       -0.0285772258
 H         -0.4680302345       -1.0987599187       -0.4199706663
 N         -2.1299567552       -2.2313295850        1.2511797449
 S         -2.4450735812       -0.5862665974        1.2671889407
 O         -1.2640029494        0.2114955082        1.4969977956
 O         -3.5089891103       -0.4437355309        2.2397265853
 C         -3.1216518913       -0.2934473619       -0.3545326794
 C         -2.4228310454        0.4358880164       -1.2939967230
 C         -2.9787762210        0.6236629256       -2.5499757230
 C         -4.2206187766        0.0829650850       -2.8434892022
 C         -4.9147549802       -0.6436393037       -1.8871952736
 C         -4.3619518162       -0.8359940079       -0.6320140312
 H         -4.8701809759       -1.3851860073        0.1428682049
 H         -5.8816183890       -1.0611256670       -2.1175673108
 H         -4.6483832182        0.2317578262       -3.8223378678
 H         -2.4310391414        1.1858032064       -3.2900170391
 H         -1.4566340160        0.8447526340       -1.0402007869
 H         -2.5788035335       -2.7135760257        2.0151541203
 H         -1.0114965011       -4.5144036205        2.0747344910
 H          1.1937918541       -5.3516742183        1.3654842494
 H          2.6171628610       -4.0170581303       -0.1248677056
 H          1.4275304748       -1.3118262833       -2.1460182054
 C          3.3401711417       -2.0604257669       -1.6335760387
 C          4.4965192078       -1.1441663649       -1.8981277126
 C          4.5270104480       -2.0678416311       -0.7193041363
 H          5.1928896335       -2.9179173841       -0.7541276769
 H          4.4000790442       -1.6525393093        0.2677030027
 H          5.1402690016       -1.3571577661       -2.7383191995
 H          4.3490901043       -0.0894549894       -1.7148925941
 H          3.2397609210       -2.9094820895       -2.3029443807
