  62
        -98.94271375
 C         -1.8145295697       -1.0777811536       -0.1360338949
 C         -3.2004695008       -1.3063622771        0.0641050537
 C         -4.1049462753       -0.2526073938       -0.4088203958
 C         -3.5979050568        0.8496258743       -0.9896658942
 C         -4.3886139613        1.9981177578       -1.5548634776
 C         -4.8013618458        3.0452462798       -0.5114374191
 C         -5.9080487192        2.6051455079        0.4476374986
 H         -6.2471734313        3.4978682490        0.9769112547
 H         -6.7546055988        2.2258853125       -0.1255947772
 C         -5.4708371536        1.5559374287        1.4794934307
 H         -5.8357170336        1.8432723666        2.4681561200
 H         -4.3800512595        1.5330695730        1.5356118466
 C         -5.9818010213        0.1418700202        1.2026251529
 H         -5.5840260750       -0.5235800376        1.9731681567
 H         -7.0715741094        0.1252643133        1.2742389277
 C         -5.5741462872       -0.4218102875       -0.1651194337
 H         -5.7925286977       -1.4925536646       -0.1736405952
 H         -6.1490993095        0.0585233292       -0.9567247331
 H         -3.9172148579        3.3353763014        0.0607643593
 H         -5.1499049114        3.9265586174       -1.0547459647
 H         -5.2760198604        1.6175231822       -2.0614456587
 H         -3.7471794939        2.4827085077       -2.2941974466
 O         -2.2625044217        1.0420196087       -1.1455474531
 C         -1.3372716059        0.1035417624       -0.7036576684
 O         -0.1549484954        0.4506511731       -0.8763035756
 O         -3.6588721281       -2.3423897372        0.6144299356
 C         -0.8487307903       -2.1469695511        0.3408579531
 C          0.2824606313       -1.5317002829        1.1256531697
 C         -0.0143442498       -0.8870024528        2.3245126677
 C          0.9839191606       -0.3149132396        3.0879278860
 C          2.3026951868       -0.3758905956        2.6722006958
 C          2.6111257508       -1.0166909862        1.4788316245
 C          1.6045909738       -1.5924374652        0.7136536793
 H          1.8708592351       -2.0572782814       -0.2205691141
 N          3.9491275749       -1.1272550354        1.0546404615
 S          4.4279831747       -0.5507899862       -0.4422301980
 O          3.6599495471       -1.1802082782       -1.4831966415
 O          5.8573092148       -0.7785881325       -0.4763561142
 C          4.1195610468        1.2052768662       -0.3723376819
 C          2.8263496720        1.6721098140       -0.4935231180
 C          2.6003602356        3.0352463636       -0.3715078895
 C          3.6569723119        3.8997174602       -0.1321594184
 C          4.9497925274        3.4118563732       -0.0123555240
 C          5.1844945893        2.0517775582       -0.1280608765
 H          6.1719159640        1.6270965229       -0.0445248202
 H          5.7712874776        4.0852112080        0.1725661766
 H          3.4709047195        4.9582981746       -0.0393886133
 H          1.5911169142        3.4041213226       -0.4648759376
 H          2.0132563079        0.9889700598       -0.6809215014
 H          4.6179064660       -0.8222350880        1.7484705395
 H          3.0871682335        0.0665074110        3.2676568915
 H          0.7360334972        0.1830656549        4.0131467592
 H         -1.0456180937       -0.8392415938        2.6478339095
 H         -1.4449746502       -2.7612739980        1.0370921378
 C         -0.3694708846       -3.0849673951       -0.7566452215
 C         -1.2390178512       -3.4132196654       -1.9323463310
 C          0.0055487241       -2.6019071468       -2.1239564676
 H          0.8549909997       -3.0565349538       -2.6131432757
 H         -0.0898815944       -1.5470220772       -2.3281467135
 H         -1.2527320728       -4.4308764175       -2.2925827452
 H         -2.1922915464       -2.9102313797       -2.0068058078
 H          0.2211788895       -3.9038111735       -0.3559255026
