  62
        -98.94825237
 C         -1.1784626929       -1.2137219303       -0.0174652676
 C         -1.9232945883       -0.6552951789        1.0480997324
 C         -2.5638312252        0.6386322209        0.7768286572
 C         -2.4006243009        1.2135041234       -0.4287231999
 C         -3.0326638262        2.5064819305       -0.8544776448
 C         -4.3924327007        2.2669923094       -1.5255390315
 C         -5.3194361766        1.3477178201       -0.7305055708
 H         -6.2587918490        1.2757988140       -1.2827672470
 H         -4.8869668351        0.3451138502       -0.6988528897
 C         -5.6045638875        1.8195592060        0.7021476426
 H         -5.3567713256        2.8770374065        0.8012637520
 H         -6.6737783666        1.7172939801        0.8991647652
 C         -4.8750203414        1.0262812036        1.7880799284
 H         -5.0450322814       -0.0430225904        1.6384210428
 H         -5.3088351536        1.2937828599        2.7553665716
 C         -3.3623798853        1.2633008842        1.8856056496
 H         -3.1588925395        2.3346868658        1.9507383631
 H         -3.0090227097        0.7950432053        2.8094945697
 H         -4.8772658447        3.2331211506       -1.6763825456
 H         -4.2206611359        1.8152084206       -2.5050171614
 H         -3.1521242615        3.1485197151        0.0162637523
 H         -2.3673779632        2.9994082457       -1.5654064804
 O         -1.6670708296        0.6532981223       -1.4235160475
 C         -1.0276696616       -0.5674278779       -1.2434642542
 O         -0.3743388408       -0.9531183582       -2.2293830619
 H          1.0234347241       -0.7338728289        1.4430473746
 C          1.6233627175       -1.3578584821        0.7959378382
 C          1.0161286082       -2.3646697717        0.0535188055
 C          1.8112226181       -3.1649652466       -0.7561755302
 C          3.1767352626       -2.9503189493       -0.8278710867
 C          3.7745126281       -1.9400330908       -0.0983049968
 C          2.9896576581       -1.1394015973        0.7248007045
 N          3.5763051276       -0.1249463366        1.5033546859
 S          2.9040083415        1.4041746875        1.5316013333
 O          3.9354147380        2.2351739355        2.1145990521
 O          1.6382071348        1.3861104353        2.2188714033
 C          2.6819047198        1.8335276334       -0.1825555196
 C          3.7917499241        2.1922140716       -0.9230278446
 C          3.6351760353        2.4674631974       -2.2712199704
 C          2.3802330431        2.3714098928       -2.8542404583
 C          1.2759388247        2.0146706820       -2.0966051979
 C          1.4274524746        1.7419689159       -0.7466411426
 H          0.5935364584        1.4587294472       -0.1229305646
 H          0.3005515461        1.9228730443       -2.5474392142
 H          2.2584772343        2.5762666187       -3.9061393127
 H          4.4894153851        2.7508167677       -2.8647580248
 H          4.7472308906        2.2656342347       -0.4293658199
 H          4.5799865954       -0.0627612269        1.4063153720
 H          4.8392738569       -1.7731203743       -0.1558518468
 H          3.7824760344       -3.5762991938       -1.4650507195
 H          1.3623984635       -3.9554811936       -1.3341669409
 C         -0.4763343659       -2.5426449422        0.1911438125
 H         -0.6867556036       -2.8218888502        1.2347371905
 C         -1.0551847868       -3.6020328154       -0.7228569662
 C         -1.0104831111       -5.0463836903       -0.3255672758
 C         -2.3123770056       -4.3048494629       -0.3099029574
 H         -3.0480531854       -4.5337031019       -1.0663698383
 H         -2.7391615957       -4.0372003310        0.6459972867
 H         -0.8548482298       -5.7885665521       -1.0938200376
 H         -0.5554671813       -5.2897877415        0.6226477444
 H         -0.9441847660       -3.3536495397       -1.7721922845
 O         -2.0459717082       -1.2129237883        2.1729335958
