  62
        -98.94425798
 C         -1.8177469801       -0.6011809399       -0.1729084000
 C         -2.9200961702       -1.2897477998        0.3874035200
 C         -4.2405696801       -0.9319950998       -0.1465804401
 C         -4.3263356900       -0.0104036199       -1.1234502302
 C         -5.6106005299        0.4849278102       -1.7218473004
 C         -6.1350561999        1.7177696703       -0.9722688905
 C         -6.1744223500        1.5470139904        0.5463609195
 H         -5.1521590500        1.4543953304        0.9202237996
 H         -6.5874344399        2.4667784105        0.9662532194
 C         -7.0016052001        0.3474804305        1.0295177096
 H         -7.6712869201        0.0156785205        0.2353253995
 H         -7.6252924101        0.6671058807        1.8670295295
 C         -6.1707583902       -0.8395181695        1.5204102497
 H         -5.4344007102       -0.4941584495        2.2504611697
 H         -6.8405488703       -1.5334440994        2.0351315797
 C         -5.4359015002       -1.6345342396        0.4337346199
 H         -5.0505715503       -2.5487083196        0.8946187500
 H         -6.1374776601       -1.9162962397       -0.3539199602
 H         -5.4864706898        2.5657098302       -1.2047036805
 H         -7.1369602898        1.9453779203       -1.3408938306
 H         -6.3503092599       -0.3128094498       -1.6925204803
 H         -5.4225974398        0.7560489601       -2.7620832604
 O         -3.2429356299        0.6160943000       -1.6507195902
 C         -1.9632313999        0.3472709300       -1.1850355601
 O         -1.0646632398        1.0043477899       -1.7444141701
 O         -2.8044932303       -2.1578011497        1.2939244701
 C         -0.4234622401       -0.9170530000        0.3359422201
 C          0.2609384299        0.3346092100        0.8247133801
 C         -0.4369623401        1.2055856801        1.6577564399
 C          0.1510000500        2.3675763601        2.1166187399
 C          1.4505558300        2.6833025600        1.7616587799
 C          2.1643118600        1.8117195699        0.9478405901
 C          1.5721899600        0.6401881999        0.4941837201
 H          2.1367249000       -0.0130260702       -0.1491822998
 N          3.4978933701        2.0845794998        0.6292245301
 S          4.3084077201        1.4033952496       -0.6553194897
 O          5.5300862702        2.1763525495       -0.7431443297
 O          3.5121015202        1.3507352395       -1.8585169698
 C          4.7081521699       -0.2440612004       -0.1070077096
 C          4.7864649499       -1.2527658905       -1.0466493195
 C          5.1418154798       -2.5285273505       -0.6368503493
 C          5.4097692897       -2.7732816504        0.7008865507
 C          5.3280023497       -1.7494873903        1.6321016006
 C          4.9791812298       -0.4706995903        1.2278035105
 H          4.9068007698        0.3451399498        1.9271998304
 H          5.5354562596       -1.9432160702        2.6721714807
 H          5.6822102996       -3.7674807503        1.0179648608
 H          5.2065033598       -3.3251586905       -1.3610264092
 H          4.5566732300       -1.0210192506       -2.0749340895
 H          3.8375994801        3.0012841498        0.8750808101
 H          1.9084127301        3.5963416300        2.1099157899
 H         -0.4076443800        3.0384084202        2.7520614598
 H         -1.4551787501        0.9632336302        1.9304111899
 H         -0.5734855602       -1.5860685699        1.1969933302
 C          0.3638371399       -1.6617273301       -0.7220142397
 C          1.4072611798       -2.6609755502       -0.3230422196
 C          0.1106170298       -3.1262548401       -0.9124227096
 H          0.1100088699       -3.5228804502       -1.9166007096
 H         -0.6138893003       -3.5899588900       -0.2590800496
 H          2.3016145598       -2.7373902003       -0.9225889395
 H          1.5707906997       -2.8181012901        0.7322379605
 H          0.5391788900       -1.0622257202       -1.6095471098
