  62
        -98.94555639
 C          1.9717182804        1.5111615609       -0.1032552788
 C          1.6845754310        0.2625804509       -0.7069352292
 C          2.8068526413       -0.6856515287       -0.7675195591
 C          4.0139460711       -0.3109734583       -0.3062854488
 C          5.2256487714       -1.1953154779       -0.2586439687
 C          5.3199046114       -1.9296808982        1.0862289111
 C          4.0187671716       -2.6125353688        1.5081499407
 H          4.2119372715       -3.1223355089        2.4546350206
 H          3.2619286412       -1.8492807091        1.7036206507
 C          3.4707012321       -3.6189172787        0.4869094503
 H          4.2605863824       -3.9076464783       -0.2075446396
 H          3.1615720323       -4.5214785390        1.0183508101
 C          2.2549043321       -3.1280057390       -0.3017457398
 H          1.4972345218       -2.7490263694        0.3885744101
 H          1.8264849426       -3.9871147090       -0.8242199001
 C          2.5303020320       -2.0428250186       -1.3500580095
 H          3.3461526622       -2.3579178082       -2.0035859794
 H          1.6259495720       -1.9260137588       -1.9539505397
 H          6.1180012617       -2.6714554179        1.0202136711
 H          5.5928684910       -1.2057482083        1.8577073514
 H          5.1788924719       -1.9135650177       -1.0746881789
 H          6.1127016712       -0.5723249176       -0.3853469184
 O          4.2592573006        0.9147944316        0.2250619816
 C          3.2419505802        1.8448571012        0.3642632715
 O          3.5881811997        2.9125951812        0.9098606419
 H         -1.7914070798        2.3260456796       -0.6857475794
 C         -1.5778214598        1.8612733295        0.2638635305
 C         -0.2939754299        1.8996045398        0.7816682508
 C         -0.0555620000        1.2911263497        2.0115507407
 C         -1.0708565199        0.6497751991        2.6939399003
 C         -2.3488738298        0.5983384688        2.1644876801
 C         -2.5981907297        1.2070154890        0.9429329701
 N         -3.8934981796        1.1541291986        0.3928453798
 S         -4.6008011490       -0.3563062416        0.2315150693
 O         -5.6608925988       -0.1708449317       -0.7342832708
 O         -5.0057626191       -0.8328698420        1.5303438892
 C         -3.3271089185       -1.4061276710       -0.4405828806
 C         -2.6485278483       -2.2791191809        0.3840038893
 C         -1.6363348979       -3.0560525804       -0.1552023006
 C         -1.3195120677       -2.9429734400       -1.4990241105
 C         -2.0078185478       -2.0582109101       -2.3131114505
 C         -3.0199958082       -1.2787838906       -1.7802758305
 H         -3.5842312983       -0.5864215806       -2.3847581105
 H         -1.7530555076       -1.9685394797       -3.3569045804
 H         -0.5293129274       -3.5474853996       -1.9153856205
 H         -1.0950654478       -3.7440790504        0.4747126093
 H         -2.9273257585       -2.3402298313        1.4233478293
 H         -3.9789559296        1.6655219488       -0.4741730701
 H         -3.1518579697        0.0923787884        2.6753795698
 H         -0.8670430299        0.1808521990        3.6449429503
 H          0.9459692099        1.3201625099        2.4201150409
 C          0.8642103800        2.5380312904        0.0554891712
 H          1.2734731396        3.3380120904        0.6887696315
 C          0.4999365001        3.1228806306       -1.2930113588
 C         -0.1065979804        4.4904055304       -1.3825972386
 C          1.3070449498        4.2662623310       -1.8268416183
 H          1.5272807500        4.2935060714       -2.8835214083
 H          2.1079478595        4.6398559712       -1.2054926881
 H         -0.8554355303        4.6769019403       -2.1378561387
 H         -0.2688026708        5.0267702001       -0.4598666185
 H          0.1759601705        2.3688147207       -2.0015127590
 O          0.5557209012       -0.0449549894       -1.1677805495
