  62
        -98.94030137
 C         -2.2548996289       -1.0564663662       -0.3871533860
 C         -3.5758757955       -1.0766289596        0.1264015357
 C         -4.4631272313       -0.0049543138       -0.3365085908
 C         -4.0039031492        0.9086110428       -1.2107956680
 C         -4.7894697304        2.0551658706       -1.7874272447
 C         -4.8223338623        3.2988467065       -0.8884727759
 C         -5.6993254114        3.1763605196        0.3583003932
 H         -5.8029808246        4.1797238557        0.7759971934
 H         -6.6949886574        2.8395268400        0.0682878263
 C         -5.1344492305        2.2470023812        1.4417703725
 H         -4.0708325269        2.0764376334        1.2577184430
 H         -5.2153139964        2.7332878461        2.4165687491
 C         -5.8416207442        0.8958721120        1.5498560980
 H         -5.3389007352        0.3077628622        2.3217050632
 H         -6.8768038426        1.0483129120        1.8627923514
 C         -5.8390307327        0.0752020727        0.2532569153
 H         -6.5367456302        0.5038754593       -0.4654551548
 H         -6.1589267104       -0.9422275351        0.4903743581
 H         -3.7987169072        3.5417549169       -0.5931060387
 H         -5.1991442690        4.1276118621       -1.4923123094
 H         -5.8082107268        1.7314099962       -2.0018888619
 H         -4.3029189327        2.3226468502       -2.7278651347
 O         -2.7346657535        0.8824645147       -1.6978653126
 C         -1.8202194019       -0.0763934047       -1.2797815333
 O         -0.6883462272        0.0528861420       -1.7844441980
 O         -3.9928303511       -1.9494291694        0.9337401463
 C         -1.2784652861       -2.1110334818        0.1083481576
 C         -0.2860708976       -1.4353421608        1.0229221706
 C         -0.7183918378       -1.0382642704        2.2869131185
 C          0.1332804475       -0.3769795397        3.1492544770
 C          1.4315079090       -0.0905659718        2.7642387216
 C          1.8737095516       -0.4827031039        1.5065789565
 C          1.0185437073       -1.1583870785        0.6452507005
 H          1.3781844399       -1.4349730686       -0.3311179063
 N          3.2038991071       -0.2331685072        1.1158107645
 S          3.4973768450        0.3630139733       -0.4399715253
 O          2.7183415176        1.5595377827       -0.6684205536
 O          3.3570219180       -0.7089242844       -1.3908709346
 C          5.2234959456        0.7863701107       -0.2738324949
 C          5.5844709164        2.1016859827       -0.0519150369
 C          6.9263492955        2.4126206671        0.1035711619
 C          7.8793472969        1.4075332814        0.0380370849
 C          7.5021037204        0.0916046813       -0.1857252958
 C          6.1623381351       -0.2254097564       -0.3432192704
 H          5.8219903354       -1.2309336424       -0.5272212038
 H          8.2461192964       -0.6867249166       -0.2386494476
 H          8.9227987700        1.6518578446        0.1592610622
 H          7.2222058195        3.4352266768        0.2741741470
 H          4.8087618654        2.8499310192       -0.0175040638
 H          3.6861608549        0.3488412004        1.7895225191
 H          2.0986568667        0.4317879285        3.4336175487
 H         -0.2154030183       -0.0756496786        4.1256139212
 H         -1.7382622075       -1.2508551685        2.5767304293
 H         -1.8835324890       -2.7988008910        0.7165239004
 C         -0.6461159324       -2.8929934654       -1.0211263934
 C         -0.0088415580       -4.2170776277       -0.7272565421
 C         -1.2982077263       -4.1583785222       -1.4884586123
 H         -1.2863791064       -4.3826495106       -2.5445180938
 H         -2.2029084542       -4.4680287477       -0.9858422666
 H          0.8929625726       -4.4811940958       -1.2582123257
 H         -0.0385676313       -4.5671754505        0.2935384942
 H         -0.1855987627       -2.2647383894       -1.7745642676
