  62
        -98.94601093
 C          1.9999060539        0.2951533060        0.5122023281
 C          1.6748942354       -0.8680544228        1.2540922077
 C          1.7789140172       -2.1455664854        0.5410191678
 C          2.1120968208       -2.1534294087       -0.7620135502
 C          2.2678573281       -3.3724473670       -1.6303047630
 C          0.9441043653       -3.8891119367       -2.2102225676
 C          0.0403203494       -4.6147292558       -1.2128502229
 H         -0.7327157179       -5.1229243940       -1.7927611926
 H          0.6158639884       -5.3809169926       -0.6914290789
 C         -0.6390722332       -3.6905212274       -0.1928079353
 H         -0.6066236679       -2.6621081154       -0.5633035176
 H         -1.6953771455       -3.9586651960       -0.1064987491
 C         -0.0402973995       -3.7518678396        1.2128197251
 H         -0.1832674371       -4.7538067881        1.6241641946
 H         -0.5836116549       -3.0490988119        1.8483681453
 C          1.4523330893       -3.4046453909        1.2881286241
 H          1.7125294337       -3.2434024069        2.3374877512
 H          2.0485031333       -4.2324384461        0.9038581482
 H          1.1884796575       -4.5808332335       -3.0201170191
 H          0.4000052224       -3.0451573249       -2.6428003378
 H          2.7565455784       -4.1680349846       -1.0665158298
 H          2.9175417353       -3.0821154098       -2.4589415607
 O          2.3731659485       -1.0153818679       -1.4536429581
 C          2.2930039074        0.2335856930       -0.8521923591
 O          2.5202949677        1.1774731975       -1.6324300416
 O          1.3111059903       -0.8407869101        2.4610865988
 C          1.8560889479        1.6413418418        1.2058985548
 C          0.9873211893        2.5248889082        0.3467579449
 C          1.3621332748        3.7635086821       -0.1525236495
 C          0.5208374364        4.4450549517       -1.0163231993
 C         -0.6843672397        3.8997594824       -1.4179385555
 C         -1.0728887545        2.6630299708       -0.9120994794
 C         -0.2569039689        2.0154434101       -0.0033049321
 H         -0.5555442630        1.0571459922        0.3901563897
 N         -2.2823148823        2.0678542202       -1.2943734765
 S         -2.4961035934        0.4073308549       -1.2761216905
 O         -1.2721328647       -0.3215071664       -1.5114537963
 O         -3.5633251934        0.1828481921       -2.2293229269
 C         -3.1274426286        0.1046111093        0.3616667224
 C         -4.3788376596        0.6067835880        0.6636493612
 C         -4.8949778138        0.4067370298        1.9331789882
 C         -4.1543429044       -0.2877123054        2.8783844097
 C         -2.9020498286       -0.7887170384        2.5600126751
 C         -2.3825679284       -0.5928515623        1.2898387133
 H         -1.4085944069       -0.9689792721        1.0159967814
 H         -2.3176987856       -1.3244042952        3.2916212120
 H         -4.5535205120       -0.4415228716        3.8684531886
 H         -5.8697328693        0.7932575496        2.1833563779
 H         -4.9234026849        1.1323410235       -0.1028714144
 H         -2.7557095395        2.5085631928       -2.0684710699
 H         -1.3147651479        4.4158191071       -2.1260175765
 H          0.8235571329        5.4047674013       -1.4075230748
 H          2.3230828562        4.1795558066        0.1020283438
 H          1.3012568479        1.4105007013        2.1312496795
 C          3.1624724373        2.2881631345        1.6356876679
 C          4.3759597589        1.4559035984        1.9209684835
 C          4.3573146741        2.3717094477        0.7357936276
 H          4.9624748604        3.2659384560        0.7724908667
 H          4.2719471381        1.9421266388       -0.2495862028
 H          4.9927354998        1.7183088165        2.7673866202
 H          4.3040400215        0.3923551392        1.7437363093
 H          2.9950841055        3.1325384892        2.2975167980
