  62
        -98.94967111
 C         -1.4991716509       -1.0611145371        0.0431825137
 C         -2.5224294262       -0.6425965647        0.9240871998
 C         -3.0647547120        0.7006567131        0.6866098383
 C         -2.5476663260        1.4534203918       -0.3021022804
 C         -3.0314620843        2.8240943722       -0.6761171875
 C         -4.1240668852        2.7578446258       -1.7525698767
 C         -5.2419134251        1.7640875224       -1.4366590828
 H         -5.9692800551        1.8238614903       -2.2490118203
 H         -4.8308692846        0.7521164042       -1.4451098446
 C         -5.9501733581        2.0106640249       -0.0973942434
 H         -5.7508392503        3.0264843836        0.2457409395
 H         -7.0280674049        1.9249295033       -0.2497925453
 C         -5.5771807686        1.0214645261        1.0082586701
 H         -5.6856886459       -0.0007719927        0.6372943538
 H         -6.2853928731        1.1481750763        1.8313901977
 C         -4.1668938651        1.1735057777        1.5926778873
 H         -4.0002125568        2.2105867702        1.8924275652
 H         -4.1076503273        0.5460959161        2.4872568021
 H         -4.5462060741        3.7567742229       -1.8764635982
 H         -3.6609468222        2.4643401058       -2.6973494994
 H         -3.4110369680        3.3230447785        0.2136731163
 H         -2.1819267692        3.3914345858       -1.0607271060
 O         -1.5483230702        1.0273568940       -1.1137261413
 C         -0.9941175981       -0.2313929516       -0.9570607154
 O         -0.0794387720       -0.4962508432       -1.7617139226
 H          0.4288563141       -0.5418426840        1.5989299659
 C          1.1074961438       -1.2660687780        1.1717987311
 C          0.6111708881       -2.3234276337        0.4201176207
 C          1.5138297087       -3.2400869401       -0.1059317388
 C          2.8743308417       -3.0845601678        0.0965955826
 C          3.3650579855       -2.0031829000        0.8051167707
 C          2.4697698261       -1.0860276045        1.3419561735
 N          2.9131838141        0.0551536946        2.0469490379
 S          2.6185433311        1.5282317729        1.2974451016
 O          3.2520082177        2.5153675095        2.1465334907
 O          1.2059297355        1.6926594615        1.0730597286
 C          3.5176118441        1.4075691745       -0.2389798384
 C          4.8077751848        1.9024248947       -0.2805377765
 C          5.5538896965        1.7391467778       -1.4358231697
 C          5.0031410377        1.0753541543       -2.5221253787
 C          3.7093000355        0.5820748074       -2.4620515264
 C          2.9531960593        0.7449892768       -1.3103464042
 H          1.9419139486        0.3723300775       -1.2481629679
 H          3.2730934160        0.0652590956       -3.3018225558
 H          5.5840521799        0.9419857573       -3.4211100499
 H          6.5594003301        2.1250541306       -1.4845385497
 H          5.1909779277        2.4134353334        0.5881334371
 H          3.8905770452        0.0135180431        2.3046777980
 H          4.4271792123       -1.8654285411        0.9414569515
 H          3.5618799907       -3.8051008524       -0.3189417379
 H          1.1504842568       -4.0764287696       -0.6804851620
 C         -0.8810933626       -2.4343427808        0.2255394482
 H         -1.3219970655       -2.8341468659        1.1516479214
 C         -1.2662831886       -3.3399578829       -0.9274979126
 C         -1.4597091890       -4.8104628849       -0.7104503514
 C         -2.6448322817       -3.9267668622       -0.9536849952
 H         -3.1588231253       -3.9963798435       -1.9006331458
 H         -3.2938748814       -3.6973019047       -0.1210152784
 H         -1.3124966085       -5.1928964009        0.2882571844
 H         -1.1622009565       -5.4907626316       -1.4941891628
 H         -0.8448882398       -3.0099548451       -1.8706655720
 O         -2.9582450867       -1.3589596207        1.8676749307
