  62
        -98.94591775
 C         -1.2923350942       -1.4228376042        0.6187900607
 C         -2.3667487702       -1.3137548257       -0.2985717921
 C         -3.3655350884       -0.2750398444        0.0020852407
 C         -3.2158802706        0.4973349695        1.0923447122
 C         -4.1374066658        1.6140593095        1.4890551321
 C         -3.6996520809        2.9576634036        0.8885958196
 C         -3.3876775345        2.8967423310       -0.6064842904
 H         -2.5154738559        2.2589546594       -0.7662430721
 H         -3.1154888677        3.9062698030       -0.9215573129
 C         -4.5474046665        2.3908334341       -1.4753286156
 H         -4.6362565563        3.0362582465       -2.3516417827
 H         -5.4851477501        2.4646641476       -0.9232317573
 C         -4.3750611291        0.9611850381       -1.9909926173
 H         -3.3944594478        0.8558375965       -2.4616631177
 H         -5.1293788098        0.7851076085       -2.7624710335
 C         -4.5279856787       -0.1472729876       -0.9420692167
 H         -4.5872323568       -1.1014118942       -1.4736119254
 H         -5.4587251487       -0.0049589082       -0.3889727549
 H         -2.8055911971        3.3000826745        1.4148680261
 H         -4.4925030585        3.6864513650        1.0669364068
 H         -5.1469524883        1.3725486443        1.1613796423
 H         -4.1301137343        1.6930304999        2.5777298694
 O         -2.1723038930        0.3634695032        1.9513912630
 C         -1.1957278834       -0.5949991439        1.7403914721
 O         -0.3051411097       -0.6128303846        2.6149345435
 H          2.2143314275       -1.2555141660        0.8346174941
 C          1.9815124347       -1.3540486411       -0.2151420460
 C          0.7946122591       -1.9580195189       -0.6079762905
 C          0.5232591609       -2.0783762964       -1.9670038320
 C          1.4247418408       -1.6063227401       -2.9033365591
 C          2.6023239304       -0.9962544737       -2.5084186943
 C          2.8807399458       -0.8659192528       -1.1531109156
 N          4.0711046904       -0.2570376696       -0.7223730616
 S          4.0367912634        0.8156376296        0.5613110445
 O          5.2602833718        1.5756884100        0.4202419466
 O          3.8775832356        0.1013320445        1.8012059248
 C          2.6344796089        1.8669131193        0.2352218444
 C          2.7656119106        2.8193659013       -0.7578070946
 C          1.6792231584        3.6183844862       -1.0714971044
 C          0.4808304813        3.4492626949       -0.3937903017
 C          0.3679318354        2.4919586922        0.6011456963
 C          1.4519745628        1.6896515766        0.9221634085
 H          1.3797521706        0.9381962167        1.6931298400
 H         -0.5587433425        2.3517361242        1.1354489878
 H         -0.3689612800        4.0670499299       -0.6380407551
 H          1.7662827093        4.3676610345       -1.8416550777
 H          3.7176413532        2.9292182304       -1.2514607660
 H          4.6527540949        0.0932063355       -1.4700008118
 H          3.3033526861       -0.6262478811       -3.2409487932
 H          1.2042913501       -1.7078720165       -3.9551114838
 H         -0.4080122348       -2.5208649994       -2.2818077473
 C         -0.1706881436       -2.4376797255        0.4501885003
 H          0.3676178290       -2.4450021444        1.4079336822
 C         -0.6763817312       -3.8404590445        0.1785248822
 C          0.2486545541       -4.9971404829        0.4024184667
 C         -0.9058302892       -4.7693738971        1.3306478259
 H         -1.7457614864       -5.4465021292        1.2874132750
 H         -0.6967358587       -4.3975967529        2.3236815040
 H          1.2416996038       -4.7785973977        0.7665375894
 H          0.2039606822       -5.8331728891       -0.2784174723
 H         -1.3702607989       -3.9012952564       -0.6488079388
 O         -2.5117946169       -2.0403982310       -1.3151370591
