  62
        -98.94272702
 C         -1.4463832423       -1.1983623744        0.0027727794
 C         -2.6988642846       -1.3101598108        0.6622528339
 C         -3.4475069826       -0.0625119194        0.8615645012
 C         -2.8933609765        1.1016106103        0.4780533714
 C         -3.5500106781        2.4454098650        0.6010719577
 C         -4.3388609142        2.7976932088       -0.6675041572
 C         -5.2730060566        1.6842132922       -1.1411514370
 H         -5.8016099792        2.0548439199       -2.0221290878
 H         -4.6744860949        0.8288183891       -1.4627950477
 C         -6.2927664902        1.2211779581       -0.0912104267
 H         -6.3865822976        1.9739646281        0.6923477074
 H         -7.2702799579        1.1287577302       -0.5693840430
 C         -5.9789067959       -0.1348005079        0.5443705913
 H         -5.7935800553       -0.8726858356       -0.2405861326
 H         -6.8629888530       -0.4632615161        1.0974858708
 C         -4.7951089491       -0.1584198784        1.5197613913
 H         -4.9179290125        0.6301735304        2.2651103699
 H         -4.8089480838       -1.1229283225        2.0359692791
 H         -4.9180572755        3.7025218951       -0.4744657803
 H         -3.6290879476        3.0124684673       -1.4695437574
 H         -4.2130508282        2.4419428503        1.4640528215
 H         -2.7730507665        3.1955684002        0.7553179321
 O         -1.6767130645        1.1784081715       -0.1122283106
 C         -0.9270056103        0.0400703180       -0.3861221492
 O          0.1448492005        0.2838368428       -0.9666108729
 H          1.6649201899       -1.7386860018       -1.4264955419
 C          1.7917332514       -1.8314440172       -0.3594737381
 C          0.7273138370       -2.2484990045        0.4244113555
 C          0.9084211781       -2.3487935346        1.7999886701
 C          2.1259325804       -2.0360456206        2.3762131101
 C          3.1765647394       -1.5871610677        1.5949643249
 C          2.9980636350       -1.4688964970        0.2228755107
 N          4.0449226460       -0.9629090856       -0.5760525480
 S          4.6256373431        0.5619144835       -0.1918562614
 O          5.4149430782        0.9621493939       -1.3357606366
 O          5.3315322094        0.4853861403        1.0640070795
 C          3.2070612977        1.6289832036       -0.0244880078
 C          2.7679617020        2.3230477006       -1.1327519131
 C          1.6492579002        3.1301497756       -1.0188317093
 C          0.9844858991        3.2189850433        0.1930350160
 C          1.4350540809        2.5120545179        1.2957727709
 C          2.5585814073        1.7091685528        1.1906477063
 H          2.9384787904        1.1484116428        2.0291482156
 H          0.9084050400        2.5745003818        2.2353977497
 H          0.1030668048        3.8356617393        0.2758601356
 H          1.2899569859        3.6749948187       -1.8772791053
 H          3.3115825510        2.2241925142       -2.0588470352
 H          3.8209895927       -0.9829719211       -1.5615262404
 H          4.1224943149       -1.3053929484        2.0289189134
 H          2.2558918110       -2.1284824318        3.4440334962
 H          0.0772041666       -2.6631335596        2.4159807733
 C         -0.6388138505       -2.4760290429       -0.1663879218
 H         -1.1673198004       -3.2162099224        0.4551017240
 C         -0.5965056700       -3.0455600501       -1.5757001073
 C         -1.8380238946       -3.0682800061       -2.4154657337
 C         -0.6795341276       -2.2065594796       -2.8138764358
 H         -0.0912207465       -2.5071840289       -3.6690808450
 H         -0.7666172545       -1.1378728126       -2.7009096495
 H         -2.0541370147       -3.9498013663       -2.9999611246
 H         -2.7155293040       -2.5858718877       -2.0098682896
 H          0.0399959309       -3.9240195513       -1.6305522612
 O         -3.1680328464       -2.4062490686        1.0704765540
