  62
        -98.93786532
 C          1.9504821763        1.3713275513        0.0990752331
 C          2.2664511890        0.3721213442       -0.8514142619
 C          3.6494601344       -0.1389622435       -0.8301081934
 C          4.5286389340        0.3482161598        0.0608827220
 C          5.9876084506        0.0057742719        0.2291998841
 C          6.3836782714       -1.4754238199        0.1550947476
 C          5.3289005335       -2.4582165310        0.6840048222
 H          5.8028905943       -3.1388194058        1.3937719027
 H          4.5490620425       -1.9177713569        1.2236255577
 C          4.6919014190       -3.3035579518       -0.4217494948
 H          4.2542500067       -4.1980775681        0.0282542233
 H          5.4763278196       -3.6333232552       -1.1065527655
 C          3.5875971348       -2.6133938176       -1.2213909057
 H          2.7033977838       -2.4820448296       -0.5911599311
 H          3.3006989285       -3.2778781854       -2.0402194147
 C          3.9548278783       -1.2392880548       -1.8058177277
 H          4.9926788534       -1.2137932723       -2.1284355784
 H          3.3155884818       -1.0614171730       -2.6747120799
 H          7.3035201111       -1.5844450517        0.7320970215
 H          6.6271295595       -1.7372563811       -0.8737512668
 H          6.2613701459        0.4089486809        1.2071620999
 H          6.5558309091        0.5652496588       -0.5197048042
 O          4.1837074431        1.3100285078        0.9619361889
 C          2.9068743337        1.8353681977        1.0080399950
 O          2.7461249606        2.7055129349        1.8869379321
 O          1.4557265376       -0.0863344194       -1.7011090034
 C          0.5782395113        2.0178064717        0.2166106894
 C         -0.3990564392        1.1162277874        0.9321182789
 C         -0.9358638153        1.4791063320        2.1616056554
 C         -1.8528718733        0.6623677125        2.8008639420
 C         -2.2538807357       -0.5304297753        2.2265947221
 C         -1.7172179473       -0.9037366783        1.0013024140
 C         -0.8035713757       -0.0814884782        0.3595759739
 H         -0.3843742184       -0.3812419819       -0.5894213718
 N         -2.1345290285       -2.1095831674        0.3985689749
 S         -3.7815992486       -2.2132049587        0.0986162233
 O         -4.4664955889       -2.5460843100        1.3225685479
 O         -3.9259875208       -3.1582558566       -0.9857316023
 C         -4.2327240343       -0.5693532848       -0.4260966189
 C         -4.9194227544        0.2636289865        0.4331507206
 C         -5.1834172412        1.5643309737        0.0350049308
 C         -4.7540683824        2.0077874818       -1.2058978315
 C         -4.0676683089        1.1571709754       -2.0589239862
 C         -3.7987931800       -0.1432117807       -1.6656588635
 H         -3.2690843480       -0.8325932730       -2.3039254197
 H         -3.7364752296        1.5020775102       -3.0254951548
 H         -4.9556971661        3.0225150072       -1.5111346787
 H         -5.7175019434        2.2283868867        0.6952240088
 H         -5.2347042582       -0.1214911453        1.3888461978
 H         -1.6164015333       -2.3217021294       -0.4427905725
 H         -2.9723408895       -1.1771967849        2.7039954725
 H         -2.2602160806        0.9579293844        3.7556356716
 H         -0.6205122614        2.4047956263        2.6207529037
 H          0.7285465276        2.9084812680        0.8406966152
 C          0.0141102714        2.4598324102       -1.1210128369
 C         -1.0725494390        3.4903051756       -1.1425359890
 C          0.3044199741        3.8421571013       -1.6186860995
 H          0.4671874951        3.9847915664       -2.6764927508
 H          0.9142036744        4.4801285958       -0.9952126176
 H         -1.8601409807        3.3908603489       -1.8727322394
 H         -1.3989441983        3.8912051469       -0.1951148339
 H         -0.0269813225        1.6664685049       -1.8549629628
