  62
        -98.93700577
 C         -1.9812258312       -0.5541352214        0.1136325593
 C         -2.6728262377        0.6668673616        0.3121940494
 C         -4.0662489255        0.7484911698       -0.1649656675
 C         -4.6033511451       -0.3279994849       -0.7681572116
 C         -6.0020564990       -0.5035600460       -1.2967370523
 C         -7.0326344334       -0.7321577857       -0.1792786037
 C         -6.8818735959        0.1849887838        1.0315001136
 H         -7.5946582755       -0.1474289960        1.7908529901
 H         -5.8817807595        0.0631638975        1.4515249308
 C         -7.1424830821        1.6653154474        0.7633162012
 H         -7.0904811389        2.1831294578        1.7245783055
 H         -8.1566797866        1.7862711280        0.3761776079
 C         -6.1702683652        2.3527633004       -0.1978657737
 H         -6.3240231974        3.4314591220       -0.0997779476
 H         -6.3959898952        2.1024052830       -1.2309169498
 C         -4.6953341886        2.0958826371        0.0953167550
 H         -4.0952103385        2.8157036791       -0.4748395653
 H         -4.4928117185        2.3259422307        1.1477740088
 H         -6.9288567086       -1.7623840521        0.1697169720
 H         -8.0319020427       -0.6183470397       -0.6028029113
 H         -5.9851712191       -1.3864096521       -1.9395418038
 H         -6.2786718729        0.3480296253       -1.9111492627
 O         -3.9003701106       -1.4802857414       -0.9454956632
 C         -2.5921300390       -1.6340505885       -0.5233785127
 O         -2.1163734831       -2.7570919774       -0.7806701083
 O         -2.1497820738        1.6623803430        0.8846728114
 C         -0.5583944699       -0.6237139166        0.6387999353
 C          0.4659420235       -0.3802695467       -0.4438549032
 C          0.5260201131       -1.1748760218       -1.5846521169
 C          1.4826279293       -0.9364963669       -2.5539718899
 C          2.4112870900        0.0778112976       -2.3951731246
 C          2.3650953662        0.8717414717       -1.2564192096
 C          1.3883844585        0.6452942605       -0.2955007383
 H          1.3593389519        1.2802836496        0.5770408062
 N          3.3030182034        1.9033183171       -1.0532438565
 S          4.2485474779        1.8435655355        0.3280852974
 O          3.4197268464        1.9767072096        1.4975860287
 O          5.2607252407        2.8569755575        0.1340832652
 C          4.9947265372        0.2235118094        0.2759590633
 C          6.2521192173        0.0870118738       -0.2794787434
 C          6.8039024748       -1.1791421116       -0.3885659114
 C          6.0864379150       -2.2835974305        0.0454952200
 C          4.8237987103       -2.1301303253        0.5971421608
 C          4.2689514221       -0.8656832925        0.7164475109
 H          3.2907016637       -0.7137033800        1.1421471182
 H          4.2636519596       -2.9881973931        0.9323516804
 H          6.5130222561       -3.2700996214       -0.0449108193
 H          7.7870591724       -1.3011068246       -0.8137849501
 H          6.7742949979        0.9736042061       -0.6012563438
 H          3.8914311611        2.0800208584       -1.8557963414
 H          3.1626335798        0.2574901161       -3.1493487200
 H          1.5124722999       -1.5545110979       -3.4384092309
 H         -0.1889386914       -1.9739288847       -1.7055759854
 H         -0.4797581482        0.2045098961        1.3568733729
 C         -0.2457940640       -1.9167515413        1.3677831312
 C          0.8103186077       -1.9128378463        2.4304346923
 C         -0.6335033079       -2.0563533620        2.8075527686
 H         -0.9866944991       -3.0155365844        3.1547252870
 H         -1.1235366830       -1.2152250008        3.2766475439
 H          1.4522238822       -2.7751898112        2.5246277922
 H          1.2958062618       -0.9734156805        2.6537239366
 H         -0.3334500748       -2.7951959210        0.7419123326
