  62
        -98.94430800
 C         -1.9848544290       -1.3080614587        0.0394440313
 C         -2.3090623111       -0.3431512230       -0.9450499370
 C         -3.7152112465        0.0809001922       -0.9822436787
 C         -4.6045325508       -0.4570578687       -0.1287625629
 C         -6.0744482505       -0.1431581855       -0.0636472515
 C         -6.4099576583        1.1048435590        0.7643423161
 C         -6.0368794420        2.4372942081        0.1132433846
 H         -6.4514496291        2.4770342496       -0.8945649410
 H         -6.5202164174        3.2245718856        0.6951843722
 C         -4.5282521009        2.7173915804        0.0629454091
 H         -4.0107591588        2.0601614790        0.7658971234
 H         -4.3368034143        3.7429583025        0.3868449341
 C         -3.8983784360        2.5551484689       -1.3205976538
 H         -2.8243625813        2.7384011719       -1.2303829083
 H         -4.3115566788        3.3031187007       -2.0011090092
 C         -4.0927488307        1.1667910083       -1.9440462874
 H         -5.1240881623        1.0433959489       -2.2736002808
 H         -3.4348179316        1.0863017410       -2.8128049240
 H         -5.9158807870        1.0233947991        1.7353043737
 H         -7.4883636307        1.0997425199        0.9388179185
 H         -6.5557076005       -1.0051584261        0.4033517693
 H         -6.4703982553       -0.0287720071       -1.0730755767
 O         -4.2564536321       -1.3944877846        0.7920106376
 C         -2.9447988969       -1.8173259506        0.9185574030
 O         -2.7609232722       -2.6468222282        1.8315581319
 O         -1.4842374482        0.1418019889       -1.7632141568
 C         -0.5614600429       -1.8102609996        0.2272400897
 C          0.2674535354       -0.6900367955        0.8059783692
 C          0.2950479146       -0.4979577157        2.1839941597
 C          1.0236053128        0.5377333449        2.7401516524
 C          1.7343170661        1.4091074885        1.9326473107
 C          1.7033710927        1.2307284968        0.5566614405
 C          0.9852851554        0.1810069096        0.0005861667
 H          0.9584826086        0.0635751991       -1.0710738427
 N          2.4318090199        2.1139575724       -0.2719142204
 S          4.0974569081        2.0273351917       -0.1130031150
 O          4.4729751968        2.5514025837        1.1753338726
 O          4.6412865235        2.7082079330       -1.2658321458
 C          4.4554445427        0.2821467899       -0.1934107530
 C          4.6387399780       -0.2993445111       -1.4319402974
 C          4.8342041835       -1.6686907965       -1.5071994370
 C          4.8285496604       -2.4308625428       -0.3491231710
 C          4.6391531155       -1.8319448294        0.8864681383
 C          4.4497314417       -0.4618763256        0.9691616424
 H          4.3036994324        0.0410375340        1.9108104592
 H          4.6347300867       -2.4268567340        1.7855511540
 H          4.9724587779       -3.4980898490       -0.4102518609
 H          4.9859786789       -2.1370603688       -2.4664938313
 H          4.6388307306        0.3298661246       -2.3076342818
 H          2.1808765310        2.0259210940       -1.2470269669
 H          2.3167385825        2.2168409652        2.3458489795
 H          1.0370457329        0.6704962320        3.8114510552
 H         -0.2719369245       -1.1689328216        2.8144083037
 H         -0.6236031354       -2.6069303030        0.9799433826
 C          0.0206486013       -2.3876282713       -1.0469074903
 C          1.3039080282       -3.1579031177       -0.9734519203
 C          0.0154815990       -3.8714126817       -1.2500760084
 H         -0.1609884020       -4.2533261696       -2.2444580710
 H         -0.4106095727       -4.4820549838       -0.4674759306
 H          2.0171749568       -3.0499833432       -1.7758324323
 H          1.7546297206       -3.2788848179       -0.0001368146
 H         -0.1508760334       -1.7701246925       -1.9191154666
