  62
        -98.94012978
 C          2.4298717196        0.9625375409        0.0709309692
 C          3.6742575697        0.8674045611        0.7474138789
 C          4.7094633896        0.0605949409        0.0933709388
 C          4.4414984693       -0.5424958494       -1.0785770709
 C          5.3967461090       -1.3831795597       -1.8813449309
 C          5.4714304092       -2.8470981995       -1.4262433205
 C          6.2004896696       -3.0808736591       -0.1024487606
 H          6.3689516196       -4.1561257791       -0.0156955903
 H          7.1787075796       -2.6002598791       -0.1375805710
 C          5.4328563299       -2.6008711587        1.1373184395
 H          4.3812350598       -2.4532541488        0.8803222497
 H          5.4676548201       -3.3734562485        1.9087605797
 C          5.9754366201       -1.3147303085        1.7607593189
 H          5.3360613403       -1.0471479583        2.6058882090
 H          6.9833588802       -1.4894247184        2.1436912887
 C          6.0180103398       -0.1172732588        0.8024964185
 H          6.8269765496       -0.2398923690        0.0825863583
 H          6.2048154899        0.7852959814        1.3896752882
 H          4.4556415092       -3.2433457895       -1.3580534701
 H          5.9938623590       -3.4044386898       -2.2071904704
 H          5.0387513087       -1.3613503900       -2.9129158608
 H          6.3921112290       -0.9390834696       -1.8492944213
 O          3.2346343191       -0.4373226896       -1.6918286306
 C          2.1918896892        0.2935290305       -1.1311434805
 O          1.1458267990        0.2606282003       -1.8042839202
 O          3.9083287200        1.4324121715        1.8486556086
 C          1.3364807897        1.7745821011        0.7430610293
 C          0.0595245398        0.9775254911        0.8113497999
 C         -0.0447472700       -0.0565337486        1.7370802902
 C         -1.1951241199       -0.8177527786        1.8204823308
 C         -2.2640521902       -0.5683072889        0.9777822110
 C         -2.1682954204        0.4566786708        0.0468610907
 C         -1.0163684405        1.2287704808       -0.0250213599
 H         -0.9472965807        2.0118883006       -0.7643329102
 N         -3.2427927107        0.6964587205       -0.8271240591
 S         -4.7674938005        0.9195364607       -0.1685151687
 O         -5.5010416808        1.6849931804       -1.1531533588
 O         -4.6916325201        1.4884535611        1.1579127311
 C         -5.4484459205       -0.7235033093       -0.0867995380
 C         -5.4687934408       -1.4794621497       -1.2424840478
 C         -6.0053037007       -2.7562650597       -1.1968181573
 C         -6.5122657504       -3.2514152993       -0.0044120670
 C         -6.4871688701       -2.4786647789        1.1463895028
 C         -5.9507756601       -1.2009610689        1.1077847422
 H         -5.9034692899       -0.5664910287        1.9784012920
 H         -6.8815503998       -2.8654976686        2.0722936730
 H         -6.9287780704       -4.2458239093        0.0278554035
 H         -6.0253199710       -3.3606655299       -2.0894041671
 H         -5.0658805010       -1.0582711499       -2.1485325280
 H         -3.0443353609        1.3876796903       -1.5355559694
 H         -3.1624730001       -1.1614588689        1.0317569714
 H         -1.2606588597       -1.6153112784        2.5449771211
 H          0.7931814202       -0.2581494684        2.3905671100
 H          1.7013884500        1.9158296014        1.7738358391
 C          1.1372209195        3.1685452309        0.1665490789
 C          2.3105230694        3.9712816108       -0.3079311017
 C          1.2894233791        3.4847425404       -1.2899671113
 H          0.6154807890        4.2080769103       -1.7265870413
 H          1.5557434189        2.6806575802       -1.9577046311
 H          2.3431742594        5.0249651308       -0.0753798220
 H          3.2775770794        3.4899805608       -0.2975749118
 H          0.3644648297        3.7140684311        0.7012088589
