  62
        -98.94844263
 C         -0.8225109102       -1.1972545496        0.5766458608
 C         -1.2139967700       -0.5508720801       -0.6202746696
 C         -2.1578185991        0.5619781407       -0.4562901301
 C         -2.4805618884        0.9868316418        0.7780689697
 C         -3.4327122975        2.1044272428        1.1079780091
 C         -4.9026182578        1.6633485340        1.1533364898
 C         -5.5328938884        1.3727694036       -0.2096184999
 H         -6.6099883184        1.2887385945       -0.0518036396
 H         -5.3667988279        2.2215457830       -0.8735291005
 C         -5.0312148295        0.0858814227       -0.8798872491
 H         -4.5425066499       -0.5464683772       -0.1348773288
 H         -5.8833389101       -0.4779074869       -1.2663743985
 C         -4.0695610796        0.3100803511       -2.0474567895
 H         -4.5915283694        0.8254910610       -2.8565116997
 H         -3.7527497805       -0.6673164394       -2.4196794089
 C         -2.8111539689        1.1121741304       -1.6873128803
 H         -2.0974730792        1.0204184493       -2.5086984904
 H         -3.0646099081        2.1622164107       -1.5505103310
 H         -4.9830361084        0.7787255145        1.7895067204
 H         -5.4705441771        2.4662858948        1.6290879594
 H         -3.1522106369        2.4743109333        2.0966500888
 H         -3.3231494170        2.9131617322        0.3855234585
 O         -1.9541250586        0.4340332922        1.9052254599
 C         -1.1702009695       -0.7070284585        1.8343573205
 O         -0.8445808896       -1.1782185280        2.9443449508
 H          1.7401884604       -0.5540935513        1.0572256797
 C          2.0885362697       -1.1716087522        0.2411754901
 C          1.3058268888       -2.2350263518       -0.1922125990
 C          1.7804239679       -3.0353250029       -1.2232223585
 C          3.0035677580       -2.7648973443       -1.8115929990
 C          3.7760520389       -1.7010525046       -1.3850444299
 C          3.3147104398       -0.9016505235       -0.3442048904
 N          4.0897057108        0.1660358862        0.1285654087
 S          3.4006771420        1.4913443072        0.8549442779
 O          4.4337948828        2.5048325564        0.7856565970
 O          2.9428617520        1.1645917785        2.1827800183
 C          2.0301096021        2.0091632676       -0.1627243421
 C          0.9334062827        2.5675655089        0.4605013278
 C         -0.0863376170        3.0932809992       -0.3153193823
 C          0.0020487726        3.0415519882       -1.6970444723
 C          1.0995392220        2.4581611269       -2.3087849922
 C          2.1298261518        1.9453353366       -1.5379366721
 H          2.9984839213        1.5004998656       -1.9949239920
 H          1.1589555117        2.4056072761       -3.3838450922
 H         -0.7892517772        3.4571712384       -2.3000255324
 H         -0.9392401366        3.5447648802        0.1646523675
 H          0.8975912130        2.5764957597        1.5390840278
 H          4.9051813808        0.3976586152       -0.4181519317
 H          4.7300963490       -1.4910478557       -1.8434541603
 H          3.3590262473       -3.3906526551       -2.6158835187
 H          1.1925671672       -3.8689020027       -1.5695036778
 C         -0.0059108912       -2.4748336503        0.5122547015
 H          0.2190245988       -2.7439922598        1.5551761116
 C         -0.8378807823       -3.5783231501       -0.1096372276
 C         -0.5988257033       -5.0090880000        0.2647715034
 C         -1.8307468226       -4.3041516887        0.7455700032
 H         -2.7833458829       -4.5746309482        0.3151272036
 H         -1.8877963222       -4.0213250679        1.7871169630
 H         -0.7089712541       -5.7679724004       -0.4950596261
 H          0.1795040167       -5.2138458001        0.9843514733
 H         -1.1281924623       -3.3558711606       -1.1300071876
 O         -0.8202965905       -0.8971915612       -1.7627910794
