  62
        -98.94342769
 C         -1.9521837844       -0.8579442348        0.0434075557
 C         -2.2426759762        0.1085496532        1.0337089576
 C         -2.5375298563        1.4614948775        0.5466318104
 C         -2.4745470688        1.7119564310       -0.7740669731
 C         -2.7920439231        3.0332049413       -1.4115622283
 C         -4.2742618233        3.1221367487       -1.8018312042
 C         -5.2328054634        2.7192883219       -0.6813023644
 H         -5.1009415821        1.6565529296       -0.4657656003
 H         -6.2488362793        2.8478456380       -1.0603204677
 C         -5.0653162515        3.5228126505        0.6158188795
 H         -6.0535980581        3.8100791858        0.9806370621
 H         -4.5138229827        4.4416556946        0.4139515006
 C         -4.3772148756        2.7599726788        1.7493337620
 H         -4.8691142451        1.7947453667        1.8936868520
 H         -4.5031811175        3.3330681404        2.6717462695
 C         -2.8741833561        2.5101598596        1.5693286461
 H         -2.4805626544        2.1366372515        2.5196806699
 H         -2.3672482933        3.4494992182        1.3374091341
 H         -4.4467154112        2.4613802769       -2.6543627298
 H         -4.4870992516        4.1456809880       -2.1153712148
 H         -2.1793634101        3.1349235055       -2.3089050694
 H         -2.5368110851        3.8331752514       -0.7191447471
 O         -2.1600301327        0.7654783670       -1.6946380409
 C         -1.8893866886       -0.5396256659       -1.3129699473
 O         -1.6175312456       -1.3055741366       -2.2575374098
 O         -2.2566607750       -0.1505834411        2.2696506419
 C         -1.6285863153       -2.2758795471        0.4703356639
 C         -0.2400959613       -2.6719146955        0.0282147322
 C          0.0879715476       -3.9715497426       -0.3380182049
 C          1.3835619185       -4.2889414698       -0.7078024536
 C          2.3741141724       -3.3254106049       -0.7222416749
 C          2.0548844347       -2.0193384551       -0.3633891594
 C          0.7615285351       -1.7097862013        0.0222905905
 H          0.5292997761       -0.6951629353        0.3131198361
 N          3.0285081933       -1.0096553703       -0.4241096887
 S          2.8311591189        0.4350170553        0.4119294688
 O          2.5911148067        0.1813039001        1.8162239402
 O          1.8535403671        1.2457271442       -0.2717315464
 C          4.4561832026        1.1338201710        0.1882820328
 C          5.3795893132        1.0587491955        1.2136945551
 C          6.6478579469        1.5814695577        1.0136917653
 C          6.9701641029        2.1645902588       -0.2024006007
 C          6.0325028745        2.2332060798       -1.2224373193
 C          4.7626166736        1.7135002707       -1.0285809151
 H          3.9978724823        1.7507786785       -1.7871186441
 H          6.2854732131        2.6892693199       -2.1659521342
 H          7.9573918506        2.5707048204       -0.3559348579
 H          7.3775522306        1.5321800626        1.8056800781
 H          5.0801095530        0.6032239861        2.1438149799
 H          3.9765645782       -1.3558704782       -0.3831101319
 H          3.3818296765       -3.5729286254       -1.0180804041
 H          1.6247497861       -5.3028032487       -0.9890160289
 H         -0.6721941163       -4.7355755026       -0.3349708299
 H         -1.6399717833       -2.2592175083        1.5717996097
 C         -2.7022191981       -3.2304764854       -0.0137895321
 C         -3.0937052813       -4.4209234160        0.8084061833
 C         -4.0218075183       -3.2502823791        0.6961908715
 H         -4.9222846216       -3.3552165287        0.1099332709
 H         -4.1305160437       -2.5986304793        1.5512296676
 H         -3.3608882198       -5.3339608141        0.2979720036
 H         -2.5829283904       -4.5704025905        1.7477551578
 H         -2.7127636367       -3.3243821268       -1.0939988041
