  62
        -98.94432795
 C         -1.5791069964       -1.4207658941        0.4850583748
 C         -1.6610514280       -0.1446111450        1.0975007564
 C         -2.8075483985        0.6829021900        0.7079605498
 C         -3.6947439641        0.2137191005       -0.1881247987
 C         -4.9335628660        0.9235086365       -0.6637472478
 C         -4.6865640268        1.9155823366       -1.8084483955
 C         -3.9657682333        3.2030563282       -1.4075579868
 H         -4.0511932116        3.8929816190       -2.2493858003
 H         -4.4811888467        3.6572926256       -0.5607888655
 C         -2.4799003898        3.0165093398       -1.0697224580
 H         -1.8941271635        3.7955526782       -1.5620724898
 H         -2.1328062488        2.0589933290       -1.4653235012
 C         -2.1544634894        3.0822843933        0.4221272019
 H         -2.3718587998        4.0836210077        0.7995434277
 H         -1.0850578411        2.8960867662        0.5443550850
 C         -2.9104897084        2.0628673831        1.2835022882
 H         -2.4512877979        2.0439836870        2.2746953245
 H         -3.9554908007        2.3545331680        1.3868442816
 H         -4.1195209992        1.4090820208       -2.5929752988
 H         -5.6612296957        2.1830039441       -2.2232719895
 H         -5.6164081260        0.1494985052       -1.0207800276
 H         -5.4029499545        1.4413262342        0.1731868588
 O         -3.5709245582       -1.0091305588       -0.7673913514
 C         -2.5032837615       -1.8455529486       -0.4698058883
 O         -2.5094992082       -2.9148596379       -1.1082610183
 O         -0.8218548772        0.2774108803        1.9366748172
 C         -0.4039146106       -2.3113359256        0.8537606953
 C          0.5757694362       -2.3121368139       -0.2936943723
 C          0.6624476273       -3.3436129934       -1.2200390718
 C          1.5561504463       -3.2604566159       -2.2732613194
 C          2.3930666217       -2.1677735100       -2.4076418179
 C          2.3154953712       -1.1308166318       -1.4842362068
 C          1.4002685756       -1.2033688611       -0.4465714619
 H          1.3298482812       -0.3902236757        0.2614014041
 N          3.1499792334       -0.0070501046       -1.5883000119
 S          3.8747533868        0.6053030071       -0.2049155403
 O          5.0902897615        1.2309312340       -0.6842707899
 O          4.0429275361       -0.4184639725        0.7994291529
 C          2.7789383867        1.8831286119        0.3684205139
 C          2.2899476346        1.8462482104        1.6580981021
 C          1.4877539549        2.8856625226        2.1007883504
 C          1.1930966191        3.9391286994        1.2496441917
 C          1.6894031302        3.9598232694       -0.0459206321
 C          2.4911624129        2.9234640901       -0.4935863882
 H          2.9040696350        2.9067552366       -1.4885502286
 H          1.4520402472        4.7794834448       -0.7049211990
 H          0.5718305998        4.7489760779        1.5987595265
 H          1.0896614556        2.8608841410        3.1021862278
 H          2.5376531553        1.0072764655        2.2889664762
 H          3.8044722786       -0.0417507283       -2.3568025897
 H          3.1012774330       -2.1133634797       -3.2208673405
 H          1.6102948490       -4.0640353122       -2.9922951151
 H          0.0166017864       -4.2008168718       -1.1267040233
 H          0.0825314905       -1.8103778869        1.7026368411
 C         -0.8356598914       -3.6939663534        1.2920627960
 C          0.1416813683       -4.5637729556        2.0228614697
 C         -1.0259308649       -3.9716044112        2.7518171984
 H         -1.8325164545       -4.6243084431        3.0503841204
 H         -0.8395967819       -3.1634495336        3.4439980245
 H          0.1396559691       -5.6244182543        1.8234096951
 H          1.1224234545       -4.1548127595        2.2161635912
 H         -1.5247012843       -4.1692262661        0.6052020647
