  62
        -98.93627347
 C          2.4950504857        0.9456828243        0.4895196685
 C          2.5875412972       -0.2473121146       -0.2644465965
 C          3.7436540031       -1.1131821314        0.0284122052
 C          4.6206910157       -0.7466965321        0.9785816295
 C          5.8388619558       -1.4884538827        1.4699093438
 C          6.7354535917       -2.1560988962        0.4184368769
 C          6.8195320366       -1.4183030316       -0.9256742977
 H          7.8696581829       -1.2848394056       -1.1922258385
 H          6.3778338012       -0.4243962546       -0.8355648457
 C          6.1382722365       -2.1775493641       -2.0667391567
 H          6.3982745453       -3.2353956309       -1.9877801095
 H          6.5359826280       -1.8136397014       -3.0172060605
 C          4.6175964965       -2.0396322943       -2.1299412558
 H          4.2507465928       -2.7135213787       -2.9078963989
 H          4.3502973179       -1.0240458484       -2.4343541933
 C          3.8699115770       -2.3447217804       -0.8215766394
 H          4.3398012005       -3.1621703284       -0.2803416767
 H          2.8482285864       -2.6375638648       -1.0784872060
 H          6.3946593008       -3.1754361034        0.2428043772
 H          7.7324049214       -2.2297880605        0.8562040630
 H          6.4172053255       -0.7462400425        2.0254367247
 H          5.5091032651       -2.2431729103        2.1898890746
 O          4.4838709768        0.4095512420        1.6892453285
 C          3.4315194784        1.2791453458        1.4661247682
 O          3.4380295348        2.2949077021        2.1913096836
 H         -0.8786227151        1.6179430843       -1.3694681994
 C         -0.9968063219        1.1515137457       -0.4038945223
 C          0.0325779103        1.2034821775        0.5212555240
 C         -0.1575046990        0.5970417819        1.7606758122
 C         -1.3388612635       -0.0545386910        2.0556239272
 C         -2.3586207552       -0.1188201769        1.1213789664
 C         -2.1844337057        0.4900140889       -0.1127167137
 N         -3.2103213248        0.4217411840       -1.0685726351
 S         -4.7805647594        0.7840547851       -0.6072133429
 O         -5.4446566888        1.1955288067       -1.8248860209
 O         -4.8058881075        1.7264159575        0.4873469437
 C         -5.4516193102       -0.7796753808       -0.0830235970
 C         -6.0214864191       -0.8978643979        1.1694397833
 C         -6.5512801044       -2.1202856699        1.5524238681
 C         -6.5029596800       -3.1968136578        0.6801494348
 C         -5.9290673047       -3.0610638631       -0.5752773858
 C         -5.3987677091       -1.8415256082       -0.9645706184
 H         -4.9475539093       -1.6952610794       -1.9317935533
 H         -5.8929751290       -3.9008312805       -1.2505277162
 H         -6.9150213804       -4.1473605627        0.9802669481
 H         -6.9979472042       -2.2276694594        2.5278854984
 H         -6.0324089993       -0.0349552675        1.8163068013
 H         -2.9790123685        0.8501934956       -1.9528355368
 H         -3.2809400230       -0.6303930367        1.3428301633
 H         -1.4681257764       -0.5209924882        3.0205942748
 H          0.6404003018        0.6448525787        2.4898766210
 C          1.3422877615        1.9056053988        0.2555864308
 H          1.4548789791        2.7026303399        1.0050376622
 C          1.4440317525        2.5194330869       -1.1249043769
 C          0.8229073659        3.8548369580       -1.4017323885
 C          2.3135767283        3.7234332801       -1.3195752284
 H          2.8896636902        3.8025042756       -2.2293566309
 H          2.8169414182        4.1180430456       -0.4488437524
 H          0.3107106191        4.3462316087       -0.5880577495
 H          0.3776941825        4.0285676891       -2.3701230080
 H          1.4373097887        1.7766164396       -1.9144950991
 O          1.7449302381       -0.5822134595       -1.1367621625
