  62
        -98.93508742
 C         -1.6819850271       -0.1154565115        0.5823304551
 C         -2.9090565379       -0.1068538219        1.2894857724
 C         -4.1208494020       -0.4638691840        0.5314340381
 C         -4.0181096678       -0.7351160342       -0.7828522124
 C         -5.0578817786       -1.1635544364       -1.7973102202
 C         -6.5476257685       -1.0467469984       -1.4860505587
 C         -7.0662096867        0.3863015213       -1.3696793772
 H         -7.0437848385        0.8453610740       -2.3613104900
 H         -8.1083159140        0.3476502870       -1.0450348532
 C         -6.2850821277        1.2957726098       -0.4244908675
 H         -5.2645614111        1.4183676646       -0.7933625230
 H         -6.7549162665        2.2829559290       -0.4461838896
 C         -6.2354596637        0.8378006271        1.0318242494
 H         -7.2500858407        0.6791675041        1.4023705175
 H         -5.7892173859        1.6469735015        1.6164830864
 C         -5.4111803332       -0.4334663268        1.2989460705
 H         -5.1383246225       -0.4407617744        2.3583431428
 H         -5.9943460636       -1.3308322424        1.1062289096
 H         -6.7917582993       -1.6144120579       -0.5929643614
 H         -7.0768574178       -1.5217372408       -2.3166299990
 H         -4.8338277435       -2.2113250460       -2.0262252679
 H         -4.8366365350       -0.5964892647       -2.7070774099
 O         -2.8180193412       -0.6944169507       -1.4306418150
 C         -1.6301895646       -0.3783757775       -0.7862004807
 O         -0.6391426387       -0.3681826043       -1.5380737246
 O         -2.9920102133        0.1855422148        2.5126703243
 C         -0.4233299786        0.2530951012        1.3461640137
 C          0.3715830580        1.2792526956        0.5798679120
 C         -0.2269946963        2.5019746409        0.2839228088
 C          0.4555493223        3.4705901013       -0.4241590868
 C          1.7595852021        3.2503605231       -0.8331811609
 C          2.3673837817        2.0370651253       -0.5395589710
 C          1.6715193173        1.0580273421        0.1565173272
 H          2.1541039834        0.1152919785        0.3508696626
 N          3.6821212998        1.7736256330       -0.9494347220
 S          4.7203717751        0.9486618905        0.0669652651
 O          4.4440251526        1.2327174858        1.4563643198
 O          6.0448267437        1.3037488199       -0.3985136988
 C          4.4412572665       -0.7757575128       -0.2743163043
 C          4.4673264705       -1.6768230208        0.7716049311
 C          4.3037039569       -3.0261194909        0.4996039788
 C          4.1176523976       -3.4481676532       -0.8078568417
 C          4.0936637239       -2.5300359492       -1.8465430442
 C          4.2610595983       -1.1803181172       -1.5818111505
 H          4.2449966125       -0.4409401615       -2.3649149978
 H          3.9435287948       -2.8616150294       -2.8613393811
 H          3.9873995743       -4.4981759868       -1.0174742659
 H          4.3206058357       -3.7414164204        1.3067906839
 H          4.6028031224       -1.3035856990        1.7743980272
 H          4.1440945479        2.5328624703       -1.4278672498
 H          2.2986514852        4.0084286839       -1.3811257146
 H         -0.0254575900        4.4099078905       -0.6529948713
 H         -1.2436398445        2.6771561719        0.6100188407
 H         -0.7944523276        0.7370027403        2.2658583460
 C          0.4095122907       -0.9389953552        1.7920737663
 C         -0.2347863378       -2.2570415375        2.0979637377
 C          0.6599327949       -2.1198660558        0.9044974890
 H          1.6346645033       -2.5842970372        0.9356594990
 H          0.2151535001       -2.1086783682       -0.0777648868
 H          0.1220567635       -2.8163614697        2.9495768177
 H         -1.2990690074       -2.3425054309        1.9333792315
 H          1.2248328667       -0.6382443411        2.4443012702
