  62
        -98.93966235
 C          1.5020091603        1.5807516191        0.2454284303
 C          1.6815121204        0.4669622991        1.1036537903
 C          2.8898330604       -0.3536394109        0.9046970901
 C          3.7553101003        0.0007209992       -0.0631851401
 C          5.0240184102       -0.7053933708       -0.4555871003
 C          4.7636859602       -1.9556967908       -1.3197003102
 C          3.5070695703       -2.7455628708       -0.9566149600
 H          2.6543179602       -2.0639305409       -0.9470111599
 H          3.3288908602       -3.4730293209       -1.7527214500
 C          3.5755391905       -3.5113254208        0.3637529100
 H          4.3177880405       -4.3078095408        0.2694350399
 H          2.6038847006       -3.9842056209        0.5292223801
 C          3.9326413807       -2.6873621208        1.6000309299
 H          4.9716082406       -2.3721369808        1.5524923598
 H          3.8476168708       -3.3486200408        2.4678219999
 C          3.0237746807       -1.4928413609        1.8858588701
 H          2.0034913607       -1.8524235809        2.0609682002
 H          3.3390404208       -1.0449243808        2.8370067100
 H          4.6533818500       -1.6272044508       -2.3554791002
 H          5.6367272902       -2.6073628507       -1.2640215004
 H          5.6152792001        0.0039452993       -1.0382037703
 H          5.5907407104       -0.9529182807        0.4378698097
 O          3.5400292301        1.0703272292       -0.8741141400
 C          2.4245167601        1.8816861791       -0.7571059598
 O          2.3946701299        2.8068538191       -1.5911130098
 O          0.8588936406        0.1651162590        2.0115990704
 C          0.2565883402        2.4218895690        0.4705283905
 C         -0.8409299399        2.0188299990       -0.4852453493
 C         -0.7381254401        2.2466928990       -1.8540007293
 C         -1.7584399302        1.8610523089       -2.7035296392
 C         -2.8884145501        1.2299340189       -2.2121585090
 C         -2.9985859199        0.9935698889       -0.8474966890
 C         -1.9804853298        1.3984621689        0.0055180809
 H         -2.0834013296        1.2147008989        1.0641870809
 N         -4.1351589698        0.3612638588       -0.3165182688
 S         -3.9496635095       -0.8581904612        0.8168896312
 O         -5.2282823895       -1.5353621612        0.8230410714
 O         -3.5221113694       -0.3035216612        2.0746152811
 C         -2.7059816096       -1.9275914811        0.1185117310
 C         -3.1156561897       -2.8403616311       -0.8354401290
 C         -2.1704686898       -3.6435321911       -1.4507525291
 C         -0.8320252297       -3.5146390810       -1.1105845493
 C         -0.4393862496       -2.5949709110       -0.1520205794
 C         -1.3796802996       -1.7903464411        0.4727151108
 H         -1.0837918495       -1.0723582411        1.2218534607
 H          0.5990827904       -2.4870525410        0.1178741204
 H         -0.0905889198       -4.1336573810       -1.5908896794
 H         -2.4764324899       -4.3632204411       -2.1928009491
 H         -4.1669429597       -2.9154634512       -1.0622751388
 H         -4.8237078099        0.1003307388       -1.0078886787
 H         -3.6810261802        0.9256435088       -2.8786761589
 H         -1.6696300504        2.0461273089       -3.7633150592
 H          0.1524771498        2.7152792890       -2.2433197595
 H         -0.0824301996        2.1676546390        1.4844665706
 C          0.5096136702        3.9153364190        0.4156709205
 C         -0.4776507998        4.8370426690        1.0640069306
 C          0.8783558703        4.6424203590        1.6721390604
 H          1.5944738903        5.4479786391        1.6095831403
 H          0.9503046205        4.0649694490        2.5826414104
 H         -0.6957675899        5.7785911990        0.5840556706
 H         -1.3255072397        4.3906209289        1.5623028707
 H          0.9786573500        4.2436449590       -0.5021463196
