  62
        -98.93375796
 C         -2.2162155474       -0.8601044157        0.6168492393
 C         -3.3558991917       -0.9108239801       -0.2197434321
 C         -4.4143159105        0.0845006117        0.0430604485
 C         -4.2435444704        1.0009367741        1.0126854811
 C         -5.1485068831        2.1057492081        1.5175432484
 C         -6.3793193803        2.5339948432        0.7225641367
 C         -6.0740401538        3.2236508213       -0.6068226878
 H         -7.0178069912        3.3870336381       -1.1315991633
 H         -5.6360596491        4.2027414145       -0.3967837658
 C         -5.1137013077        2.4796161105       -1.5314580149
 H         -4.9787733543        3.0864871772       -2.4309850324
 H         -4.1354530157        2.3937834441       -1.0533512884
 C         -5.5741259263        1.0918003004       -1.9722093436
 H         -4.8798855683        0.7443627539       -2.7419119966
 H         -6.5665961240        1.1591997520       -2.4219176843
 C         -5.6089394654        0.0240586125       -0.8657211754
 H         -6.5297810399        0.0792575247       -0.2905663253
 H         -5.5792489115       -0.9583255496       -1.3455171131
 H         -7.0421277035        1.6873762896        0.5704494152
 H         -6.9191199625        3.2497475655        1.3485577557
 H         -5.4732618558        1.7886615314        2.5148056432
 H         -4.4992400781        2.9741597910        1.6689062692
 O         -3.1166457217        1.0228479096        1.7855323041
 C         -2.0969959638        0.1064291627        1.6183959244
 O         -1.1499534860        0.2490231637        2.4198748587
 O         -3.5178683236       -1.7460877670       -1.1479405624
 C         -1.0469866472       -1.8254727840        0.5022529425
 C         -0.1034882941       -1.4216900780       -0.6060920091
 C         -0.5008726574       -1.4232442811       -1.9391845395
 C          0.3873602011       -1.0526826093       -2.9318148218
 C          1.6819537805       -0.6785750648       -2.6183624275
 C          2.0917913554       -0.6813503912       -1.2898276780
 C          1.1970525250       -1.0505657777       -0.2951117786
 H          1.5184228207       -1.0282223872        0.7356317163
 N          3.4187835495       -0.3556335298       -0.9575985615
 S          3.7479486813        0.4404308839        0.4935087678
 O          3.6606821000       -0.5080507532        1.5750037913
 O          2.9362918399        1.6323218704        0.6054561181
 C          5.4565016087        0.8735873926        0.2211902688
 C          5.7900412271        2.1673829567       -0.1309605709
 C          7.1212665073        2.4769216837       -0.3634167730
 C          8.0902024622        1.4923167284       -0.2432365924
 C          7.7400999675        0.1978404675        0.1118550815
 C          6.4116249672       -0.1178093407        0.3471556378
 H          6.0929502740       -1.1061703814        0.6342885945
 H          8.4963982343       -0.5644553666        0.2070126361
 H          9.1251001657        1.7358922518       -0.4246467178
 H          7.3965151424        3.4829432302       -0.6362824601
 H          5.0033863669        2.9010575062       -0.2051986115
 H          3.9119982354        0.0804928227       -1.7254636336
 H          2.3729038117       -0.3896073081       -3.3958977364
 H          0.0666962948       -1.0513388414       -3.9627388539
 H         -1.5138617445       -1.7018392920       -2.1846722383
 H         -0.4972186731       -1.7321779398        1.4495187162
 C         -1.4763074243       -3.2715123197        0.3409882735
 C         -0.5060091588       -4.3547317498        0.6991167853
 C         -1.7063522848       -4.1071773927        1.5619893859
 H         -2.5108559248       -4.8270023806        1.5491638511
 H         -1.5550740190       -3.6381045695        2.5238906360
 H         -0.4837826235       -5.2473154689        0.0931756614
 H          0.4601910438       -4.0535115228        1.0765778439
 H         -2.1293792652       -3.4356813809       -0.5053622493
