  62
        -98.93907598
 C         -2.0253117318       -0.8958304410        0.0529438925
 C         -2.2714410349        0.1118421954        1.0101411626
 C         -2.3308526470        1.5009013345        0.5186330533
 C         -2.1338726933        1.7300998810       -0.7931896845
 C         -2.1802105262        3.0485238895       -1.5185286490
 C         -3.6157696005        3.5580228980       -1.7358586336
 C         -4.5508562833        3.3860295869       -0.5411160257
 H         -5.5590950231        3.6545347067       -0.8670736644
 H         -4.5723697276        2.3335359659       -0.2524730737
 C         -4.2127224123        4.2396217356        0.6785278642
 H         -4.2587828646        5.2949162614        0.4003797405
 H         -4.9870128446        4.0582479339        1.4281393773
 C         -2.8526163884        3.9712226481        1.3244598160
 H         -2.8398577014        4.4909353719        2.2871467481
 H         -2.0478609092        4.3988761953        0.7324318611
 C         -2.5626307229        2.5032857967        1.6238793646
 H         -1.6689392136        2.4477028318        2.2590920235
 H         -3.3766653080        2.0936200278        2.2330913483
 H         -3.5692287083        4.6113253704       -2.0168215316
 H         -4.0439975945        3.0026244600       -2.5735312027
 H         -1.5789799966        3.7807793864       -0.9872493392
 H         -1.7146029417        2.8846234400       -2.4929240238
 O         -1.9030780676        0.7242316690       -1.6842262928
 C         -1.8100320574       -0.5961990263       -1.2915416748
 O         -1.5564248892       -1.3951758848       -2.2145337186
 H          0.3770262695       -0.9828020628        0.9097934393
 C          0.5759695631       -1.9467227172        0.4627159026
 C         -0.4788520669       -2.8095552552        0.1922385123
 C         -0.1942509414       -4.0499378776       -0.3633792579
 C          1.1109039410       -4.3941089603       -0.6720702060
 C          2.1506363011       -3.5108721920       -0.4493516819
 C          1.8777067652       -2.2747092777        0.1268437934
 N          2.9072651281       -1.3530743975        0.3906401476
 S          2.5470807381        0.2917960615        0.2459294534
 O          1.9552043544        0.7461046435        1.4805969014
 O          1.7929277776        0.5435597096       -0.9614937445
 C          4.1948006636        0.9596015279        0.0993819523
 C          4.6928081981        1.2717623994       -1.1513641421
 C          5.9868016827        1.7581400135       -1.2555856268
 C          6.7574555683        1.9195153210       -0.1139795450
 C          6.2436443925        1.6021843776        1.1348679335
 C          4.9503434942        1.1169889712        1.2462393237
 H          4.5037246222        0.8657363419        2.1940682549
 H          6.8443990824        1.7319254129        2.0205020845
 H          7.7639555078        2.2976498412       -0.1981129989
 H          6.3870616696        2.0083252881       -2.2248395508
 H          4.0529616736        1.1359903623       -2.0088400654
 H          3.7684523193       -1.5843942562       -0.0864891455
 H          3.1632604267       -3.7711265786       -0.7174285221
 H          1.3179985567       -5.3578350167       -1.1120717823
 H         -0.9951362094       -4.7410624028       -0.5691519491
 C         -1.8756951037       -2.3347228967        0.5118478983
 H         -1.9909525624       -2.3078537642        1.6062969415
 C         -2.9639737204       -3.2078205389       -0.0757662989
 C         -3.4465989092       -4.4177186690        0.6657539986
 C         -4.3190023900       -3.2039811848        0.5640338848
 H         -5.1896452031       -3.2429455635       -0.0731164608
 H         -4.4480170910       -2.5890545713        1.4428798189
 H         -2.9900388811       -4.6334080317        1.6198580519
 H         -3.7227981302       -5.2935383385        0.0983164424
 H         -2.9207946178       -3.2493514898       -1.1583909574
 O         -2.4406587464       -0.1351004629        2.2373265380
