  62
        -98.93602391
 C         -1.6764995444       -0.4087809182       -0.2182429180
 C         -2.7951154172       -1.2265020137        0.0791224710
 C         -4.1270110280       -0.6792201556       -0.2309905616
 C         -4.2256264528        0.5652216960       -0.7335885840
 C         -5.4296303234        1.3657872170       -1.1842154217
 C         -6.8428138490        0.9335911042       -0.8015111607
 C         -7.1616039225        1.0367958987        0.6895292473
 H         -7.1982105541        2.0939670404        0.9645479971
 H         -8.1554732160        0.6154969809        0.8557988137
 C         -6.1685385787        0.3514912654        1.6248712795
 H         -5.1929123564        0.8349622816        1.5415205851
 H         -6.5160370003        0.5039062524        2.6503565731
 C         -5.9985421368       -1.1512608696        1.4104272781
 H         -5.3976663402       -1.5356487290        2.2388965818
 H         -6.9735357375       -1.6407337789        1.4498190333
 C         -5.2968293315       -1.5595166163        0.1032837738
 H         -5.9976041458       -1.5970068118       -0.7274918936
 H         -4.8935800250       -2.5673305461        0.2383589550
 H         -7.5262312436        1.6024181407       -1.3318638061
 H         -7.0413173807       -0.0704721200       -1.1646787489
 H         -5.2577502433        2.3862510699       -0.8271298528
 H         -5.3648745147        1.4083972367       -2.2773060308
 O         -3.1216174902        1.3324379426       -0.9669453650
 C         -1.8310867372        0.8848367733       -0.7149664296
 O         -0.9525074084        1.7287649488       -0.9695241802
 O         -2.6869049188       -2.3761932912        0.5823399114
 C         -0.2988032682       -0.9712041050        0.0816751627
 C          0.5441437456        0.0437643714        0.8092010719
 C          0.1877472822        0.4086120892        2.1053013656
 C          0.9262125468        1.3425936535        2.8048227307
 C          2.0505059482        1.9160790681        2.2363195854
 C          2.4130928910        1.5604758941        0.9433705852
 C          1.6610666049        0.6307630327        0.2374720754
 H          1.9352433987        0.4106395930       -0.7798569434
 N          3.5462459775        2.1204663831        0.3395192963
 S          4.4672533187        1.2230640970       -0.7204878177
 O          5.7816396526        1.8272072299       -0.6523460626
 O          3.8651480598        1.1890334418       -2.0292126879
 C          4.5214119868       -0.4236366734       -0.0321876268
 C          4.1648316943       -1.5009826036       -0.8168335311
 C          4.2077231753       -2.7742648256       -0.2710551981
 C          4.6021777489       -2.9467232321        1.0463968456
 C          4.9636448930       -1.8549467234        1.8208512027
 C          4.9264296847       -0.5807299656        1.2786623422
 H          5.2094083316        0.2855638042        1.8538250176
 H          5.2725301125       -1.9930412411        2.8443740523
 H          4.6285871768       -3.9379118493        1.4707876823
 H          3.9293363177       -3.6244562800       -0.8735270378
 H          3.8567357828       -1.3204793542       -1.8345101456
 H          4.1044322004        2.7186588589        0.9294087471
 H          2.6318286322        2.6441774429        2.7812075827
 H          0.6315762706        1.6222703341        3.8050644680
 H         -0.6878760544       -0.0426360887        2.5518336065
 H         -0.4928996204       -1.8081059616        0.7731563579
 C          0.4097058386       -1.5649485356       -1.1262799968
 C         -0.3586690132       -2.2015425351       -2.2440919954
 C          0.3770512796       -0.9174475071       -2.4768082968
 H          1.2755855517       -0.9324511778       -3.0773071462
 H         -0.1916641303       -0.0065351290       -2.5827787511
 H          0.0304397110       -3.1065364958       -2.6855421536
 H         -1.4372712292       -2.1679474127       -2.1934877715
 H          1.3400425140       -2.0490283201       -0.8440583739
