  62
        -98.93371525
 C         -2.2578254483       -0.5897874229       -0.3846617879
 C         -3.4265481700       -0.8435707916        0.3776023453
 C         -4.3040734243        0.3028603274        0.6661729954
 C         -3.9656678726        1.5213348588        0.2054700029
 C         -4.6284784654        2.8725416082        0.3739705201
 C         -6.0597907691        2.9804693347        0.8932597661
 C         -7.1266119343        2.4297604106       -0.0525206645
 H         -7.1894321332        3.0855243272       -0.9245965093
 H         -8.0898989953        2.4664575405        0.4608748620
 C         -6.8884462654        1.0101294478       -0.5610226164
 H         -5.9754771454        0.9827247195       -1.1593591878
 H         -7.7164495011        0.7501700841       -1.2261505276
 C         -6.8057517215       -0.0665756977        0.5192061145
 H         -6.7953967547       -1.0371997391        0.0159800763
 H         -7.6973017797       -0.0262671015        1.1480099702
 C         -5.5634828595       -0.0026907359        1.4247223706
 H         -5.4199042059       -0.9907949488        1.8714440377
 H         -5.7026350002        0.7051252236        2.2383835258
 H         -6.2608158452        4.0463476549        1.0313660556
 H         -6.1413098088        2.5163889284        1.8717032224
 H         -4.5652048083        3.3590314924       -0.6045826648
 H         -3.9738176748        3.4416250327        1.0433142677
 O         -2.8259313875        1.7200185518       -0.5166028211
 C         -1.9520292337        0.6931166461       -0.8338424703
 O         -0.9740599664        1.0696353201       -1.5103333048
 O         -3.7275836260       -1.9903184269        0.8043572516
 C         -1.3552283136       -1.7765592496       -0.6784106523
 C         -0.1459698148       -1.7603523534        0.2267745872
 C         -0.0489668406       -2.6555769719        1.2859929533
 C          1.0559169014       -2.6450371684        2.1191390826
 C          2.0819884845       -1.7396127328        1.9182396553
 C          1.9905051567       -0.8348164477        0.8681243281
 C          0.8876051637       -0.8564740563        0.0252294174
 H          0.8126148084       -0.1395568484       -0.7787346094
 N          3.0104663998        0.1190275979        0.6723339549
 S          4.5951043910       -0.4654341606        0.6283552434
 O          4.6910704136       -1.5816796403       -0.2868931319
 O          5.0215759043       -0.7259057748        1.9805342665
 C          5.4678626076        0.9462788673       -0.0180367559
 C          5.7569377247        1.0040368550       -1.3679414063
 C          6.4183775500        2.1162505605       -1.8645217238
 C          6.7742012728        3.1469641821       -1.0078010011
 C          6.4766586895        3.0743981585        0.3450133356
 C          5.8168137510        1.9646790026        0.8482408605
 H          5.5735231677        1.8604221065        1.8926461785
 H          6.7572434468        3.8770671097        1.0077390865
 H          7.2892509475        4.0110544968       -1.3968868582
 H          6.6535355263        2.1742128950       -2.9151267150
 H          5.4692848563        0.1756681901       -1.9955725600
 H          2.8241378429        0.6885843440       -0.1429590234
 H          2.9516053323       -1.7252889043        2.5550500944
 H          1.1197438289       -3.3491648850        2.9351977440
 H         -0.8533701194       -3.3563566844        1.4581188282
 H         -1.9526304294       -2.6599248336       -0.4160362668
 C         -0.9630539107       -1.8806702657       -2.1391307772
 C         -0.4324172579       -3.1833722742       -2.6552481980
 C         -1.7951297283       -2.7135064891       -3.0653930255
 H         -1.9401013160       -2.3681587287       -4.0780334567
 H         -2.6549860311       -3.2177173906       -2.6490293509
 H          0.3623710728       -3.1634576504       -3.3850878756
 H         -0.3668021802       -4.0056797568       -1.9587421809
 H         -0.5394076903       -0.9697102937       -2.5411016159
