  62
        -98.93718019
 C         -1.6215160864       -1.7629371423        0.1153814028
 C         -1.5634526149       -0.5101538539       -0.5367456947
 C         -2.6974375206        0.4076342872       -0.3019045203
 C         -3.6983485002        0.0180438999        0.5072964493
 C         -4.9488208225        0.7692222852        0.8871394557
 C         -5.7097581869        1.4421103417       -0.2662264814
 C         -5.6411629997        2.9690642543       -0.2261888199
 H         -6.4982949976        3.3724806277       -0.7700722563
 H         -5.7321587496        3.2951088066        0.8119622434
 C         -4.3792567552        3.5729245973       -0.8391180608
 H         -4.4152755221        3.4547428720       -1.9243585695
 H         -4.3925357153        4.6451715597       -0.6294797778
 C         -3.0559331399        2.9920105706       -0.3344901105
 H         -3.0961833078        2.8213609818        0.7402430495
 H         -2.2831077076        3.7421283324       -0.5132276136
 C         -2.6251271587        1.7075711356       -1.0564396098
 H         -1.5738560679        1.7873531513       -1.3497400133
 H         -3.1896436236        1.5989860009       -1.9878544422
 H         -6.7579605754        1.1477025524       -0.1936295758
 H         -5.3368289086        1.0726080362       -1.2205878976
 H         -5.5887169907        0.0297672515        1.3736510442
 H         -4.6951781683        1.5110721256        1.6476843496
 O         -3.6917388461       -1.1884916707        1.1446044541
 C         -2.6708729568       -2.1012057639        0.9701976128
 O         -2.8075134980       -3.1597381877        1.6159892612
 O         -0.6177174982       -0.1636551773       -1.2920618012
 C         -0.5177707669       -2.7912048098       -0.0720772463
 C          0.7666690051       -2.2176110144        0.4722658624
 C          0.9231255293       -2.1155612270        1.8520502134
 C          2.0609560341       -1.5490590086        2.3940974722
 C          3.0605020795       -1.0578542927        1.5716865573
 C          2.9045780535       -1.1386180515        0.1949139177
 C          1.7700316075       -1.7285824500       -0.3477316092
 H          1.6635549898       -1.7805119554       -1.4191780110
 N          3.9021491635       -0.6210728249       -0.6522641466
 S          4.4621250316        0.9275313645       -0.3495231365
 O          5.0583129486        1.3610567870       -1.5930823170
 O          5.3395233669        0.8997537049        0.7945462312
 C          3.0139608888        1.8999829612        0.0180755092
 C          2.2078571680        2.2932404865       -1.0310902394
 C          1.0603728727        3.0187233094       -0.7591699975
 C          0.7321289647        3.3231272453        0.5525896592
 C          1.5509883131        2.9196020190        1.5951933605
 C          2.7061900585        2.2031309690        1.3286210920
 H          3.3751515456        1.8839334079        2.1105634544
 H          1.2925485540        3.1601873827        2.6139920494
 H         -0.1671806595        3.8795838345        0.7648818637
 H          0.4257510816        3.3383347030       -1.5703339970
 H          2.4936912278        2.0396001172       -2.0391613592
 H          3.6807439346       -0.7227688773       -1.6324486479
 H          3.9555480666       -0.6133412393        1.9753189637
 H          2.1722198617       -1.4862338514        3.4660040865
 H          0.1333205060       -2.4835905491        2.4928685797
 H         -0.7988010477       -3.6513356309        0.5503522165
 C         -0.4314912555       -3.2421872537       -1.5150824331
 C          0.3070261518       -4.5016326674       -1.8522511120
 C         -1.1881324327       -4.4609572302       -1.9456428096
 H         -1.6447095379       -4.4650537415       -2.9241583376
 H         -1.7636017897       -4.9824407469       -1.1946930464
 H          0.8778264965       -4.5382396063       -2.7677273258
 H          0.7496206323       -5.0525905116       -1.0361939819
 H         -0.3827100438       -2.4190988481       -2.2176951692
