  62
        -98.94178435
 C         -2.5368929396       -0.3009581591        0.0262883047
 C         -2.2765209981       -1.3474353198       -0.8851831265
 C         -1.5802787072       -2.5306760513       -0.3507535492
 C         -1.2365342197       -2.5489608450        0.9491183087
 C         -0.4434004072       -3.5981949146        1.6789114929
 C          1.0562617308       -3.2532756843        1.6431458019
 C          1.8174215428       -3.8347905806        0.4534117789
 H          2.8389362401       -3.4502086175        0.5032407967
 H          1.8656507507       -4.9220265307        0.5521785642
 C          1.2354854132       -3.4899135124       -0.9194641959
 H          0.9657886126       -2.4314661739       -0.9477606256
 H          2.0233612060       -3.6329908704       -1.6623596602
 C          0.0292141981       -4.3604035124       -1.3019936201
 H         -0.0323366317       -5.2073576912       -0.6186827908
 H          0.1874996579       -4.7767226430       -2.2993721892
 C         -1.3186157712       -3.6300935407       -1.3449842773
 H         -1.4361700477       -3.1499128419       -2.3219814060
 H         -2.1249115545       -4.3678140779       -1.2620488557
 H          1.1523447611       -2.1637298587        1.6375744264
 H          1.5237144082       -3.6218750953        2.5589477960
 H         -0.7832277317       -3.5759929661        2.7164193669
 H         -0.6324795626       -4.5860363491        1.2689859724
 O         -1.5383455613       -1.5318418588        1.8027112973
 C         -2.1526109964       -0.3751234787        1.3650681021
 O         -2.3212187039        0.4879254725        2.2488998159
 O         -2.6011960280       -1.2896610016       -2.1047608633
 C         -3.1251192533        1.0025825046       -0.4852873852
 C         -2.1148658991        2.0997454930       -0.2481886555
 C         -2.4267001713        3.3480543117        0.2732419721
 C         -1.4224374306        4.2666722793        0.5301819255
 C         -0.0953370418        3.9558364394        0.2978254545
 C          0.2237291649        2.7160107299       -0.2455658993
 C         -0.7868896768        1.8195358279       -0.5433468832
 H         -0.5279049788        0.8618461823       -0.9712241982
 N          1.5564845788        2.3468717775       -0.5052526728
 S          1.9482247634        0.7128931296       -0.3001742772
 O          1.6168617014        0.0084748188       -1.5132004196
 O          1.3730730149        0.2050994484        0.9241060057
 C          3.7213192548        0.8245412869       -0.1476728159
 C          4.2934379053        0.8446430625        1.1101038807
 C          5.6703496155        0.9625298131        1.2187199177
 C          6.4467938860        1.0606605999        0.0738409754
 C          5.8582509517        1.0376419767       -1.1820043762
 C          4.4823836607        0.9186394126       -1.2974995059
 H          3.9795794131        0.8859557130       -2.2499109042
 H          6.4652642966        1.1105857077       -2.0698370570
 H          7.5178231249        1.1524426755        0.1611262816
 H          6.1302217232        0.9765993013        2.1936924938
 H          3.6494704732        0.7562865623        1.9707452853
 H          2.2256442015        2.9503952031       -0.0465813862
 H          0.6869573204        4.6605351296        0.5356458065
 H         -1.6764160275        5.2312569129        0.9431245325
 H         -3.4518690977        3.5953641735        0.4958925648
 H         -3.2480103373        0.8666565596       -1.5705286109
 C         -4.4786334895        1.2779003459        0.1329260856
 C         -5.5044595302        2.0722955062       -0.6175994479
 C         -5.6859468740        0.5962861231       -0.4354260611
 H         -6.4483247458        0.2476593882        0.2447577114
 H         -5.5325498074       -0.0495965799       -1.2877247383
 H         -6.1479579715        2.7379144043       -0.0624523498
 H         -5.2373290775        2.4311887313       -1.6000373688
 H         -4.4260340069        1.3897088470        1.2100326783
