  62
        -98.94167300
 C          1.6886231997        0.9620963789        0.2241089214
 C          1.8823872695       -0.4339893810        0.0455696408
 C          3.1505066397       -0.8431089710       -0.5660390688
 C          4.0349958501        0.0942889790       -0.9509739280
 C          5.3623809403       -0.1562790509       -1.6137775475
 C          6.4993984598       -0.4753022017       -0.6334296472
 C          6.4332399192       -1.8610734520        0.0097604421
 H          6.3215087294       -2.6164647716       -0.7686832983
 H          7.3953109590       -2.0344541624        0.4960871024
 C          5.3175787187       -2.0227873123        1.0517165015
 H          4.9644334888       -1.0369314123        1.3629569519
 H          5.7192536282       -2.5136120628        1.9411641515
 C          4.1218278488       -2.8497461418        0.5789947806
 H          3.3804467184       -2.8679836520        1.3816892003
 H          4.4395315086       -3.8774972217        0.3899091802
 C          3.4386694294       -2.3093942110       -0.6841930294
 H          4.0578667298       -2.5052031807       -1.5594108093
 H          2.4837198194       -2.8259995707       -0.8062112701
 H          7.4379606201       -0.3996230716       -1.1874471567
 H          6.5124270096        0.2888494279        0.1472135332
 H          5.2643425704       -0.9678816406       -2.3353068480
 H          5.6184738707        0.7588923893       -2.1519618570
 O          3.8013893203        1.4222488090       -0.7927768674
 C          2.6392699501        1.8928747489       -0.1951898577
 O          2.5989019403        3.1364125989       -0.1126164971
 O          1.0322106592       -1.2980076310        0.3875971500
 C          0.3848546895        1.3820115089        0.8796234311
 C         -0.6414032499        1.7971868896       -0.1474255392
 C         -0.4773814593        2.9378328900       -0.9263893285
 C         -1.4474543689        3.2998984406       -1.8427037988
 C         -2.6011545690        2.5487495009       -1.9861329297
 C         -2.7719556395        1.4045492406       -1.2159799803
 C         -1.7862303000        1.0316952399       -0.3130618301
 H         -1.9148683405        0.1342742697        0.2719861494
 N         -3.9191776497        0.6124017109       -1.3503809212
 S         -4.5875461404       -0.1578069896       -0.0242606519
 O         -5.9592667803       -0.4092297591       -0.4119841626
 O         -4.3999924308        0.6068168598        1.1863473686
 C         -3.7221197308       -1.7092419298        0.0744215777
 C         -3.6856882705       -2.5091087693       -1.0502835527
 C         -3.0279397307       -3.7263397295       -0.9836547230
 C         -2.4227126713       -4.1216126202        0.1997048171
 C         -2.4721152017       -3.3093011307        1.3214076675
 C         -3.1291750114       -2.0909378206        1.2609476078
 H         -3.1863735016       -1.4266076310        2.1093241481
 H         -1.9968548521       -3.6160018513        2.2393334975
 H         -1.9067126216       -5.0674856903        0.2489880769
 H         -2.9858807905       -4.3620022090       -1.8535703233
 H         -4.1695407900       -2.1688300787       -1.9506716527
 H         -4.6226130993        0.9767596214       -1.9756868513
 H         -3.3631302686        2.8430788814       -2.6919392499
 H         -1.3099701484        4.1855169509       -2.4448706083
 H          0.4197646407        3.5268503997       -0.8143281779
 H          0.0065359491        0.4729836187        1.3672828604
 C          0.5414641193        2.4576958983        1.9370677617
 C         -0.5883318411        2.6878006981        2.8945109113
 C          0.6853907286        2.0600054776        3.3738275115
 H          1.3404705184        2.6407890671        4.0058083221
 H          0.6782957283        1.0047358975        3.6050840010
 H         -0.8077654810        3.7003247680        3.1970635517
 H         -1.4644009512        2.0632267183        2.7947865106
 H          1.0996650196        3.3207206584        1.5991017023
