  62
        -98.93754113
 C         -1.9959292978       -0.9492478849        0.0399177096
 C         -2.2647775001        0.0540093527        0.9957355412
 C         -2.5798914927        1.4002270698        0.4824810378
 C         -2.5675091762        1.6027436653       -0.8482942257
 C         -2.8921682539        2.8686740992       -1.5953014658
 C         -4.4034371137        3.1507864080       -1.6558660742
 C         -5.1610886417        2.8980963699       -0.3546711973
 H         -6.2283919600        3.0039285840       -0.5657688713
 H         -4.9937953792        1.8670802387       -0.0375038658
 C         -4.8173043583        3.8439669728        0.7932605261
 H         -5.0472587546        4.8688668528        0.4935197399
 H         -5.4687831992        3.5882096709        1.6326963504
 C         -3.3694081404        3.7995219849        1.2842282676
 H         -3.3266863219        4.3544107146        2.2262359842
 H         -2.7064424312        4.3133893893        0.5933369337
 C         -2.8360786051        2.4014060285        1.5832976972
 H         -1.8812062293        2.4995711840        2.1161508232
 H         -3.5105924826        1.9035114781        2.2895906885
 H         -4.8345874189        2.5008581526       -2.4209207559
 H         -4.5489411476        4.1855644657       -1.9698157800
 H         -2.5211263379        2.7346383452       -2.6137279936
 H         -2.3536553183        3.7035663369       -1.1563943512
 O         -2.2876117479        0.6061028442       -1.7358502124
 C         -1.9803802718       -0.6775917277       -1.3270144574
 O         -1.7256780769       -1.4694751480       -2.2552692923
 O         -2.2519417491       -0.1635033870        2.2403216706
 C         -1.6385201220       -2.3447216526        0.5109430379
 C         -0.2497799175       -2.7248637338        0.0557581301
 C          0.0975113741       -4.0230583436       -0.2972343926
 C          1.3936137693       -4.3210021884       -0.6813591844
 C          2.3659449003       -3.3397462170       -0.7213545816
 C          2.0274837956       -2.0351910543       -0.3749735215
 C          0.7333365189       -1.7442687631        0.0221601827
 H          0.4856495075       -0.7301302594        0.3017978493
 N          2.9809295365       -1.0079490107       -0.4585273872
 S          2.7804650391        0.4236836445        0.4001017073
 O          2.5613188007        0.1473991727        1.8034530245
 O          1.7853830169        1.2337323729       -0.2586473459
 C          4.3952365334        1.1419418611        0.1647120050
 C          4.6730844055        1.7612208058       -1.0393729494
 C          5.9360789484        2.2938772237       -1.2431421298
 C          6.8954552589        2.1978928128       -0.2457941052
 C          6.6016865551        1.5750290335        0.9578037504
 C          5.3404645680        1.0393726001        1.1676709234
 H          5.0629110588        0.5532054068        2.0890655870
 H          7.3481951438        1.5047212722        1.7323290524
 H          7.8773888063        2.6137127315       -0.4070869845
 H          6.1667400230        2.7811645677       -2.1767148535
 H          3.8923376963        1.8177949607       -1.7801999379
 H          3.9353778038       -1.3385620371       -0.4423772246
 H          3.3740885711       -3.5728129439       -1.0274144353
 H          1.6498129965       -5.3337527589       -0.9531485843
 H         -0.6478863622       -4.8010773787       -0.2729970335
 H         -1.6292564511       -2.2886585995        1.6110817336
 C         -2.7006877862       -3.3368816310        0.0813620327
 C         -3.0406977807       -4.5129996899        0.9460192191
 C         -4.0003402999       -3.3688023643        0.8267431164
 H         -4.9127325811       -3.5118922520        0.2677300316
 H         -4.1030461402       -2.6962450114        1.6661384223
 H         -3.2982131303       -5.4462500908        0.4682249583
 H         -2.5015873838       -4.6236238926        1.8748527692
 H         -2.7371132710       -3.4609977512       -0.9952115150
