  62
        -98.94850468
 C          1.2342915490        1.5218865207        0.4897422086
 C          2.1482469186        1.1838183409       -0.5371422319
 C          3.1952762393        0.2203050316       -0.1694904723
 C          3.2339780503       -0.2697554381        1.0826928578
 C          4.2225383612       -1.2846732575        1.5777035374
 C          3.6833967118       -2.7133961078        1.4252786880
 C          3.1203880612       -3.0235130184        0.0378133184
 H          2.8211861118       -4.0745529686        0.0394852288
 H          2.2061794608       -2.4445747889       -0.1186444412
 C          4.0991036804       -2.7740124681       -1.1182685022
 H          5.1209680206       -2.7439126475       -0.7373025028
 H          4.0356541804       -3.6149979283       -1.8122089320
 C          3.8215687692       -1.5073119485       -1.9303010823
 H          2.7655856890       -1.4820901791       -2.2135006917
 H          4.4077880987       -1.5597956683       -2.8518934627
 C          4.1683245189       -0.1814300681       -1.2410511528
 H          5.1857672192       -0.2251998075       -0.8470714034
 H          4.1239873980        0.6081495217       -1.9970037429
 H          4.4902530824       -3.4119601673        1.6565342977
 H          2.8827890223       -2.8638401781        2.1534634385
 H          5.1535452408       -1.1760635071        1.0246422168
 H          4.4133038717       -1.0906076872        2.6348830472
 O          2.3428555407        0.0831672916        2.0437614882
 C          1.3023986701        0.9534996510        1.7605012686
 O          0.5159858105        1.1428111407        2.7121558391
 H         -0.4151781105       -0.1262832304       -0.2500176701
 C         -0.9685323613        0.4980721492       -0.9333523599
 C         -0.8103287820        1.8749781893       -0.8817385803
 C         -1.5096714930        2.6535922487       -1.7961623601
 C         -2.3302636032        2.0566825280       -2.7378622795
 C         -2.4890434225        0.6828436579       -2.7792903991
 C         -1.7961103515       -0.1036762615       -1.8665297693
 N         -1.9123090408       -1.5017526015       -1.8647369889
 S         -1.8571401195       -2.3333069312       -0.4151387488
 O         -0.5122412391       -2.3654334404        0.1012058704
 O         -2.4450481689       -3.6196090316       -0.7238672382
 C         -2.9454109493       -1.4226570516        0.6662009417
 C         -2.4476147691       -0.6553918611        1.6987132512
 C         -3.3322857690        0.0798832886        2.4730048216
 C         -4.6911152892        0.0349135278        2.2058276224
 C         -5.1778996794       -0.7493705527        1.1704234828
 C         -4.2988386794       -1.4820044623        0.3911246525
 H         -4.6383078196       -2.1120682627       -0.4148910672
 H         -6.2360013295       -0.7882030433        0.9679831835
 H         -5.3730162491        0.6118328076        2.8103428127
 H         -2.9416291789        0.6860782990        3.2750268712
 H         -1.3864500490       -0.6293012805        1.8926875106
 H         -2.6067213609       -1.8773803421       -2.4930917384
 H         -3.1302654527        0.2216587374       -3.5144722286
 H         -2.8608787539        2.6721629276       -3.4482197293
 H         -1.4055276435        3.7261521987       -1.7761177604
 C          0.0771031183        2.4567527600        0.1940891390
 H         -0.5151486812        2.5091807899        1.1206889594
 C          0.5830450574        3.8460527402       -0.1383248716
 C         -0.2063993030        5.0564830798        0.2582094586
 C          1.0651504776        4.7230509107        0.9769519580
 H          1.9345051071        5.3407456311        0.8091713273
 H          0.9990831784        4.3271085209        1.9802837081
 H         -1.1369272926        4.8990851094        0.7824711192
 H         -0.2087551439        5.9096492097       -0.4033870915
 H          1.1341377668        3.8739095903       -1.0710501319
 O          2.0927999976        1.6588750806       -1.7017101420
