  62
        -98.94443148
 C         -1.9255100097       -0.8233848681        0.0193962456
 C         -2.4203345056        0.4895656076        0.2071129997
 C         -3.8350416165        0.5847756656        0.5910654007
 C         -4.5596571619       -0.5352959666        0.7661682603
 C         -6.0037371330       -0.6006501614        1.1841705303
 C         -6.9979364445       -0.4353496207        0.0267134525
 C         -7.1089816207        0.9815025951       -0.5375498993
 H         -7.9876913873        1.0006421048       -1.1853108100
 H         -7.2902610058        1.6829574662        0.2774055579
 C         -5.8881366393        1.4370064471       -1.3490830880
 H         -5.2904817538        0.5663825893       -1.6289237595
 H         -6.2220322492        1.9068320057       -2.2770428019
 C         -4.9885908112        2.4430375555       -0.6307640958
 H         -5.5382183740        3.3720477894       -0.4631349779
 H         -4.1385670239        2.6679005611       -1.2802147941
 C         -4.4386468563        1.9511337524        0.7145583820
 H         -3.6476164820        2.6348855089        1.0327187700
 H         -5.2273464669        1.9537225144        1.4667293966
 H         -7.9813660224       -0.7338082697        0.3970806308
 H         -6.7206695783       -1.1253969888       -0.7734678359
 H         -6.1996066974        0.1559248239        1.9444946455
 H         -6.1538364673       -1.5872047663        1.6279192388
 O         -4.0374975216       -1.7796344077        0.5988833575
 C         -2.7204842410       -1.9541199889        0.2062099850
 O         -2.3775218891       -3.1461706777        0.0701520739
 O         -1.7221437113        1.5272191711        0.0673643599
 C         -0.4837454760       -1.0379982407       -0.4063820541
 C          0.4494166440       -0.3951699824        0.5902644827
 C          0.2964932065       -0.7035008749        1.9404122813
 C          1.1123335521       -0.1284328504        2.8941027134
 C          2.1099107104        0.7561804563        2.5215893150
 C          2.2775879669        1.0643968313        1.1778472159
 C          1.4536718777        0.4848014281        0.2207157321
 H          1.5975127536        0.7584750535       -0.8105150566
 N          3.2737747004        1.9684245966        0.7747503909
 S          4.2511013477        1.6219832196       -0.5357462282
 O          5.3701469648        2.5281616572       -0.4015139573
 O          3.5018506922        1.7123074182       -1.7620585427
 C          4.7887659291       -0.0544866698       -0.2527108988
 C          5.8135003595       -0.2674772082        0.6490107178
 C          6.1988291282       -1.5674397034        0.9319834421
 C          5.5496190033       -2.6281527766        0.3181723635
 C          4.5239757839       -2.3973836178       -0.5852265465
 C          4.1367615281       -1.0985804612       -0.8760254427
 H          3.3478876387       -0.8801172462       -1.5763967592
 H          4.0215732333       -3.2232426138       -1.0633668362
 H          5.8459537446       -3.6408181646        0.5420899611
 H          6.9999839051       -1.7503887667        1.6297919704
 H          6.2991285538        0.5847281523        1.0961486692
 H          3.8165077432        2.3538987602        1.5336491062
 H          2.7440002451        1.2135166312        3.2658533598
 H          0.9738804540       -0.3709871135        3.9369367555
 H         -0.4842842653       -1.3937056525        2.2307064647
 H         -0.3194227764       -2.1251917223       -0.3778461692
 C         -0.2857275928       -0.5538622934       -1.8273484220
 C          0.7199421330       -1.2171273200       -2.7177078544
 C         -0.7451391852       -1.4194052781       -2.9604837286
 H         -1.1991104886       -0.9474334326       -3.8189627346
 H         -1.1777138740       -2.3769165240       -2.7081077730
 H          1.2800399897       -0.6049490323       -3.4094515486
 H          1.2744030365       -2.0484742770       -2.3085733642
 H         -0.4329289848        0.5154564443       -1.9309081764
