  62
        -98.94135806
 C         -1.2231074467       -0.8557215581        0.4797754932
 C         -2.0811077924       -0.6065096003       -0.6162967712
 C         -3.0073248693        0.5306151890       -0.4728504622
 C         -2.9589644803        1.2878620516        0.6362865366
 C         -3.7643582344        2.5187574377        0.9714020369
 C         -5.2604245493        2.5048643576        0.6305274260
 C         -5.9406994729        1.1336503889        0.7548568724
 H         -5.2760394528        0.4320607332        1.2616579528
 H         -6.8367435385        1.2370793053        1.3695094348
 C         -6.3619166217        0.5517090654       -0.5965152286
 H         -7.1354726906       -0.2014148093       -0.4287271845
 H         -6.8058720685        1.3482823897       -1.1974442773
 C         -5.2457570131       -0.1165778946       -1.3983052432
 H         -5.6483821331       -0.3827528582       -2.3784957625
 H         -4.9459472782       -1.0480475071       -0.9107054722
 C         -3.9781103751        0.7296754793       -1.6011829836
 H         -3.4702248727        0.3669784659       -2.4992770716
 H         -4.2213595048        1.7800295214       -1.7431570624
 H         -5.4071380304        2.8849151949       -0.3794875771
 H         -5.7426880529        3.2142117440        1.3053593396
 H         -3.2898611304        3.3742758071        0.4806966055
 H         -3.6356449736        2.6572943866        2.0478827697
 O         -2.0830644441        1.0373194551        1.6508336456
 C         -1.1931259254       -0.0201953597        1.5941343797
 O         -0.4361054445       -0.1109861877        2.5834901106
 O         -2.0715114937       -1.2912269758       -1.6724316993
 C         -0.2247660181       -1.9963244860        0.4223209671
 C          0.7774280294       -1.7610365499       -0.6834875063
 C          1.3005294218       -2.7777213833       -1.4727745420
 C          2.2419665379       -2.4908688986       -2.4464885037
 C          2.6997536075       -1.1996997348       -2.6384398304
 C          2.1855221821       -0.1765904972       -1.8500314422
 C          1.2302095932       -0.4656550138       -0.8898981762
 H          0.8171704971        0.3418180958       -0.3056844425
 N          2.6158002363        1.1501228252       -2.0015593980
 S          2.7458197363        2.1363280587       -0.6572484723
 O          1.4411179431        2.5490249920       -0.2027404806
 O          3.6272091616        3.2015361065       -1.0872063905
 C          3.5741914744        1.1316585863        0.5625804348
 C          4.9109304244        0.8558695481        0.3423385292
 C          5.5864750416        0.0383803022        1.2322573260
 C          4.9151404465       -0.4947463662        2.3227114608
 C          3.5768398960       -0.2043206901        2.5331014387
 C          2.8951468773        0.6169766271        1.6474906485
 H          1.8520448254        0.8495796224        1.7975530782
 H          3.0453263024       -0.6121088208        3.3783846686
 H          5.4369766950       -1.1369757714        3.0144619437
 H          6.6294385958       -0.1830165360        1.0732876495
 H          5.3991287496        1.2999288024       -0.5099340411
 H          3.3825617554        1.2820809393       -2.6443647700
 H          3.4376765178       -0.9810946051       -3.3947085371
 H          2.6325569536       -3.2878111799       -3.0606781176
 H          0.9657085333       -3.7921739468       -1.3311120912
 H          0.3246986975       -1.9637970155        1.3757840305
 C         -0.9375213199       -3.3287365978        0.3161639859
 C         -0.3440059298       -4.5561995024        0.9377932414
 C         -1.5538168949       -3.9174123298        1.5486416325
 H         -2.5059354268       -4.4188162660        1.4606681961
 H         -1.4340303735       -3.3693131344        2.4723054748
 H         -0.4680826603       -5.5017386322        0.4317484939
 H          0.5974429923       -4.4505619695        1.4553361147
 H         -1.4816966125       -3.4349426659       -0.6149139469
