  62
        -98.94023716
 C         -2.4484787662       -0.9413378991       -0.0230643115
 C         -2.6253146984        0.4368014692        0.2483365982
 C         -3.9887495928        0.8411566156        0.6147440821
 C         -4.9623386178       -0.0837042961        0.6988893195
 C         -6.3942316716        0.1700819279        1.0857331620
 C         -7.2809880460        0.6420383567       -0.0747270954
 C         -7.0341716682        2.0777236129       -0.5396734424
 H         -7.8614022742        2.3475478384       -1.1991152443
 H         -7.0706249271        2.7481306130        0.3194823736
 C         -5.7141601317        2.2798562892       -1.2968416771
 H         -5.3306641009        1.3115137585       -1.6267301347
 H         -5.8965652456        2.8738932016       -2.1952430333
 C         -4.6261306751        2.9942253223       -0.4949109809
 H         -3.7252297757        3.0483692369       -1.1116219121
 H         -4.9442904915        4.0154003883       -0.2734746623
 C         -4.2557235198        2.3013030815        0.8229360318
 H         -5.0470692928        2.4436601608        1.5584978912
 H         -3.3365033791        2.7541432677        1.2026339725
 H         -7.1478774617       -0.0415904914       -0.9163161766
 H         -8.3190430579        0.5635426705        0.2563943412
 H         -6.7882239469       -0.7787397226        1.4559899756
 H         -6.4308429279        0.9011651958        1.8937622080
 O         -4.7429823533       -1.4038246606        0.4549053355
 C         -3.4921757918       -1.8610792466        0.0737179040
 O         -3.4355969088       -3.0901514223       -0.1362473205
 O         -1.6973344743        1.2851599119        0.1928950649
 C         -1.0832615521       -1.4600814797       -0.4346141533
 C         -0.0548296902       -1.1210229951        0.6171662341
 C         -0.3291669285       -1.4226921094        1.9491723797
 C          0.5895972375       -1.1406237675        2.9408450533
 C          1.8083253421       -0.5652676599        2.6257876040
 C          2.0922833620       -0.2609153630        1.3003571889
 C          1.1640668680       -0.5409996773        0.3064309598
 H          1.4136414818       -0.2953730807       -0.7118534648
 N          3.3084645385        0.3477659266        0.9513128782
 S          4.0214638047       -0.0492332502       -0.5256216936
 O          3.4191297931        0.7402731587       -1.5698650284
 O          4.0027300248       -1.4823651309       -0.7158715753
 C          5.6882281700        0.5145815316       -0.2333114516
 C          5.9649275099        1.8619228670       -0.3703811356
 C          7.2504372312        2.3110886434       -0.1135308226
 C          8.2321823725        1.4112119936        0.2745052990
 C          7.9401129067        0.0619423922        0.4057819029
 C          6.6560355995       -0.3939461842        0.1515591040
 H          6.3847860696       -1.4343094221        0.2324044307
 H          8.7064122689       -0.6352647162        0.7040946631
 H          9.2320418301        1.7635367805        0.4729834509
 H          7.4819216756        3.3589123831       -0.2173360980
 H          5.1719799939        2.5217570481       -0.6821092545
 H          3.9817127503        0.3436822969        1.7051765057
 H          2.5277390490       -0.3461718853        3.4001764987
 H          0.3592562773       -1.3774545712        3.9688725270
 H         -1.2789436113       -1.8795341723        2.1945138966
 H         -1.1720257045       -2.5561119698       -0.4799440494
 C         -0.7244332262       -0.9457307129       -1.8131044371
 C          0.2105191664       -1.7229226889       -2.6885595386
 C         -1.2492937882       -1.6589287777       -3.0211501294
 H         -1.5595167359       -1.0722568907       -3.8727841128
 H         -1.8513590656       -2.5402466164       -2.8530185121
 H          0.9097862613       -1.1778393789       -3.3055119880
 H          0.6062510893       -2.6490411248       -2.2987635089
 H         -0.6745235740        0.1370454108       -1.8534331562
