  62
        -98.94404847
 C         -2.1947420938       -1.3655075512       -0.1030529834
 C         -2.5383055146       -0.3103090739       -0.9825513672
 C         -3.8902722265        0.2460218103       -0.8182347585
 C         -4.7106724955       -0.2676168364        0.1156190162
 C         -6.0897722395        0.2389086474        0.4212175065
 C         -6.0579630421        1.3070592369        1.5233002711
 C         -5.0203084142        2.4052456051        1.2899171876
 H         -5.1101958425        3.1178711154        2.1126870040
 H         -4.0195144550        1.9708954745        1.3506645663
 C         -5.1696552433        3.1465244494       -0.0460371159
 H         -5.0648856946        4.2183845785        0.1350123137
 H         -6.1689963686        2.9828150287       -0.4510939842
 C         -4.1276569454        2.7698353794       -1.1010058193
 H         -4.1870450777        3.5000543701       -1.9126588667
 H         -3.1258421997        2.8426348171       -0.6692741575
 C         -4.2841554259        1.3775148635       -1.7254658036
 H         -5.3074352853        1.2476503928       -2.0835256575
 H         -3.6094579358        1.3218965289       -2.5848110910
 H         -7.0511572835        1.7531749975        1.6003717731
 H         -5.8301820109        0.8181844297        2.4733013311
 H         -6.6974223824       -0.6018114691        0.7601486203
 H         -6.5295554102        0.6501829782       -0.4852608153
 O         -4.3518056660       -1.2919070896        0.9304095646
 C         -3.0876395231       -1.8497057348        0.8567847119
 O         -2.8820864491       -2.7626805617        1.6811127962
 O         -1.7711832444        0.1496986208       -1.8687571213
 C         -0.8168821291       -2.0105156826       -0.1317970849
 C          0.1829410030       -1.0119188453        0.3988798909
 C          0.3789496146       -0.9118294705        1.7735414407
 C          1.2458636364        0.0292069427        2.2972297663
 C          1.9319633330        0.8939023014        1.4622798746
 C          1.7418778810        0.8023853544        0.0897341991
 C          0.8843575835       -0.1560026084       -0.4362320392
 H          0.7311756816       -0.2025710388       -1.5024326592
 N          2.4241013399        1.6819227116       -0.7642021821
 S          4.0341246459        2.0101829118       -0.4693982345
 O          4.1493380545        2.9907324470        0.5819636604
 O          4.5842348351        2.3927940844       -1.7508210745
 C          4.7355100314        0.4612970140        0.0723178071
 C          5.2953440029        0.3589039807        1.3292602142
 C          5.8111200733       -0.8613281940        1.7362538988
 C          5.7553814014       -1.9529635863        0.8841039977
 C          5.1922150890       -1.8334363525       -0.3774637811
 C          4.6759703161       -0.6159966298       -0.7896506215
 H          4.2368440191       -0.4885728321       -1.7659863599
 H          5.1510674629       -2.6839132641       -1.0388588458
 H          6.1536677050       -2.9031149468        1.2033366737
 H          6.2510697433       -0.9566151714        2.7158924724
 H          5.3170474026        1.2324904079        1.9603265781
 H          2.2337095966        1.5401625542       -1.7445526592
 H          2.5947082239        1.6484497769        1.8539221709
 H          1.3858120063        0.0955126594        3.3654670507
 H         -0.1717157356       -1.5737333398        2.4274474225
 H         -0.8658675913       -2.8476154189        0.5768073429
 C         -0.4702306725       -2.5563610464       -1.5013836261
 C          0.6659376869       -3.5239220738       -1.6350900101
 C         -0.7460116173       -3.9976449023       -1.8019573637
 H         -1.0906478636       -4.2600655314       -2.7910901290
 H         -1.1817675964       -4.5975330400       -1.0162307054
 H          1.2934313748       -3.4654273691       -2.5111783490
 H          1.1895388037       -3.8028858760       -0.7333559440
 H         -0.6325579208       -1.8481537617       -2.3036497062
