  62
        -98.94096311
 C         -1.0877415028       -1.4800198024        0.0519712852
 C         -1.5411996115       -0.5072858926        0.9735735033
 C         -2.4814174254        0.5077585338        0.4671551615
 C         -2.8159984677        0.4966299455       -0.8367206904
 C         -3.7388715329        1.3845568346       -1.6463195942
 C         -4.5933857771        2.4466645678       -0.9605723473
 C         -5.7644558716        1.8859065197       -0.1519335915
 H         -6.2163112356        2.7022096316        0.4153078642
 H         -6.5168932913        1.5121548988       -0.8509867639
 C         -5.4218304493        0.7447718880        0.8027577054
 H         -6.3537197170        0.3976528363        1.2573095844
 H         -5.0068495310       -0.0937366106        0.2402003339
 C         -4.4618388201        1.1063196463        1.9333654095
 H         -4.8647881472        1.9458535312        2.5035006619
 H         -4.4015267310        0.2455598680        2.6051085047
 C         -3.0317561289        1.4566796163        1.4933942837
 H         -2.3792059371        1.3699400976        2.3670127170
 H         -2.9716054772        2.4840245951        1.1445678048
 H         -3.9736116025        3.0912565620       -0.3442009775
 H         -5.0119455535        3.0737239327       -1.7523252109
 H         -3.1028246337        1.8715512090       -2.3933542103
 H         -4.3938127442        0.7078551380       -2.2051305669
 O         -2.2733070502       -0.4030211663       -1.7078881450
 C         -1.4066584614       -1.4040999697       -1.3026514444
 O         -1.0084619284       -2.1329377118       -2.2295533546
 O         -1.1774316780       -0.4884196166        2.1809253032
 C         -0.1659054294       -2.5770048355        0.5611743763
 C          1.2402162355       -2.2356466221        0.1373061772
 C          1.8886720895       -2.8355048625       -0.9338788383
 C          3.1550361928       -2.4172566317       -1.3080502663
 C          3.8004978689       -1.4031130752       -0.6232741774
 C          3.1579417579       -0.7982856290        0.4494508224
 C          1.8900390669       -1.2145362734        0.8217487868
 H          1.3825840387       -0.7333005287        1.6480827472
 N          3.8045950144        0.2525366062        1.1427404890
 S          3.9385521731        1.6897093523        0.2954882608
 O          4.7088490220        1.4520522997       -0.8975531615
 O          4.4787716480        2.6501013591        1.2297076191
 C          2.2661309955        2.1390009879       -0.1343510096
 C          1.6578726626        1.5127459218       -1.2041440407
 C          0.3468661549        1.8384826341       -1.5112399961
 C         -0.3289069883        2.7779847615       -0.7482168460
 C          0.2923697094        3.3896087038        0.3291424381
 C          1.6011238040        3.0642824990        0.6447519977
 H          2.1248804932        3.5199293065        1.4698198884
 H         -0.2390671837        4.1158250672        0.9228337187
 H         -1.3458050350        3.0344847071       -0.9976809152
 H         -0.1421513034        1.3491218463       -2.3395563539
 H          2.2119086254        0.7915141998       -1.7834388301
 H          3.3806016790        0.4460285465        2.0402102277
 H          4.7782238930       -1.0556497246       -0.9146323141
 H          3.6461555163       -2.8883044193       -2.1461292823
 H          1.3938694489       -3.6161003876       -1.4876360845
 H         -0.2099868973       -2.5059786700        1.6567947935
 C         -0.6196530960       -3.9589621993        0.1457196795
 C         -0.0566264208       -5.1549772780        0.8517142083
 C         -1.4831147161       -4.7550707128        1.0760165778
 H         -2.2644408101       -5.3692270288        0.6540751900
 H         -1.7451026066       -4.3075876228        2.0237681609
 H          0.1435312300       -6.0464902729        0.2774935062
 H          0.6514783797       -4.9763628322        1.6468282532
 H         -0.8256221214       -4.0451119900       -0.9135972603
