  62
        -98.94414124
 C         -2.5190269133       -1.1513412856       -0.0738134325
 C         -3.2200911381       -0.3909544452        0.8917482349
 C         -4.0278941603        0.7171659595        0.3704578693
 C         -4.0701030073        0.9459493430       -0.9551387223
 C         -4.8685952832        2.0202919760       -1.6425394275
 C         -4.1694699960        3.3859377459       -1.6860713753
 C         -4.1079532727        4.1272057340       -0.3499578263
 H         -3.7887607821        5.1490788016       -0.5640576135
 H         -5.1081490441        4.1820045470        0.0807801612
 C         -3.1398415148        3.5123602007        0.6706864004
 H         -2.4513622320        2.8363064673        0.1574694376
 H         -2.5344309473        4.3021366774        1.1217127964
 C         -3.8189550392        2.7549961877        1.8121838943
 H         -3.0414134325        2.3362175836        2.4570432834
 H         -4.4116898410        3.4500156398        2.4109639647
 C         -4.7268545988        1.6050460609        1.3555708271
 H         -5.6472371227        2.0005235342        0.9267446566
 H         -4.9787022209        0.9996469660        2.2298034412
 H         -3.1573698072        3.2478143395       -2.0735080376
 H         -4.7156658662        4.0093022851       -2.3975432826
 H         -5.0251274029        1.6812810723       -2.6687342571
 H         -5.8397933220        2.1223351252       -1.1577517675
 O         -3.3812315336        0.1911507032       -1.8512362261
 C         -2.5706566899       -0.8565257644       -1.4365505644
 O         -1.9678877200       -1.4341162463       -2.3596507928
 O         -3.1700085702       -0.6246866108        2.1304567798
 C         -1.6496989188       -2.3059594076        0.3886065448
 C         -0.2047954538       -2.0457414062        0.0375463414
 C          0.6209491949       -2.9887020832       -0.5592830912
 C          1.9416451155       -2.6844639852       -0.8426347206
 C          2.4677588426       -1.4436248198       -0.5358052368
 C          1.6553667061       -0.4970534162        0.0754978279
 C          0.3345107037       -0.8057542197        0.3598990369
 H         -0.2969870541       -0.0672233642        0.8399396471
 N          2.1808172962        0.7700324964        0.3883009461
 S          3.5968463203        0.8290040630        1.2921632844
 O          3.7262515066       -0.3298220961        2.1449669583
 O          3.5688062488        2.1150282808        1.9542730947
 C          4.8902114016        0.8353101568        0.0689851875
 C          4.8807310757        1.8352896394       -0.8836356952
 C          5.8865169039        1.8608135542       -1.8364520264
 C          6.8805992612        0.8936099553       -1.8187194631
 C          6.8778808376       -0.1016419796       -0.8534521376
 C          5.8738854126       -0.1336121555        0.1019766015
 H          5.8279901076       -0.8904439160        0.8687355783
 H          7.6517102001       -0.8522257169       -0.8412573138
 H          7.6619889491        0.9160804469       -2.5618185154
 H          5.8916745957        2.6331183315       -2.5887504951
 H          4.0929826303        2.5698234348       -0.8599012191
 H          1.4967250553        1.4067079528        0.7710469529
 H          3.4934887625       -1.2018351587       -0.7613500853
 H          2.5693950314       -3.4251375193       -1.3139342779
 H          0.2299668971       -3.9614633520       -0.8075961539
 H         -1.7329099741       -2.3116709309        1.4863480652
 C         -2.1814221377       -3.6191348339       -0.1450668672
 C         -1.9590777411       -4.8897520931        0.6178495064
 C         -3.3251836059       -4.2766128829        0.5653539767
 H         -4.0885270288       -4.7615181979       -0.0243355378
 H         -3.7035749083       -3.7896120665        1.4524804892
 H         -1.7865376292       -5.8003512777        0.0643318844
 H         -1.4107342911       -4.8263259947        1.5456845195
 H         -2.1748703548       -3.6610579103       -1.2282890572
