  62
        -98.94443161
 C          1.7082547683        1.4454963991        0.5629277446
 C          2.6360802328        1.0053740686       -0.4132721609
 C          3.3954116797       -0.2049141877       -0.0670117671
 C          3.1457163039       -0.8560276477        1.0824247431
 C          3.8429728172       -2.0971063881        1.5703625537
 C          3.2823102807       -3.4043722205        0.9934643615
 C          3.6006169594       -3.6574013425       -0.4807304965
 H          4.6755436523       -3.5643959503       -0.6388404991
 H          3.3314719130       -4.6942102031       -0.6927065699
 C          2.8533208647       -2.7407136600       -1.4600318584
 H          2.4414495398       -3.3373004735       -2.2768507093
 H          2.0114932505       -2.2659440131       -0.9515179192
 C          3.7188583065       -1.6495434659       -2.0888520692
 H          4.4972558280       -2.1042507908       -2.7056585722
 H          3.0847720879       -1.0416865481       -2.7388698827
 C          4.3852467356       -0.7156181820       -1.0705653852
 H          4.7889134870        0.1455582207       -1.6084755827
 H          5.2048495073       -1.2289916632       -0.5681738079
 H          3.7045288741       -4.2243389995        1.5792483419
 H          2.2005105914       -3.4153919167        1.1404668116
 H          4.9081452565       -2.0278544274        1.3475428708
 H          3.7174261590       -2.1183767119        2.6552669365
 O          2.2070225673       -0.4307512248        1.9703662929
 C          1.4680044481        0.7136640316        1.7298435393
 O          0.6344372259        0.9775897660        2.6207640375
 O          2.8430163093        1.5732218754       -1.5161059365
 C          0.8195797404        2.6681527660        0.3749665592
 C         -0.4059354203        2.1959174778       -0.3682822261
 C         -0.3896821389        1.9282930689       -1.7330735979
 C         -1.5020099733        1.3862972796       -2.3519268732
 C         -2.6441420694        1.0896638774       -1.6273923675
 C         -2.6660291876        1.3511960147       -0.2642179911
 C         -1.5567071477        1.9107355241        0.3527254823
 H         -1.5695251529        2.0904516086        1.4193423171
 N         -3.8071469012        1.0181809470        0.4913836148
 S         -4.3771178901       -0.5449555091        0.3123093232
 O         -5.2141368770       -0.6178230850       -0.8593760651
 O         -5.0250461106       -0.8648232099        1.5651194932
 C         -2.9355415270       -1.5734274103        0.0775335196
 C         -2.8883773213       -2.4339973270       -1.0005027985
 C         -1.7780105465       -3.2461881653       -1.1642078247
 C         -0.7336725150       -3.1798391661       -0.2551449749
 C         -0.7909566091       -2.3022853891        0.8165253663
 C         -1.9023346003       -1.4938160242        0.9901922343
 H         -1.9578654624       -0.8094761592        1.8221991820
 H          0.0239203462       -2.2298223585        1.5210420890
 H          0.1289847682       -3.8150076757       -0.3831230159
 H         -1.7279407017       -3.9268417965       -1.9986086169
 H         -3.7198770929       -2.4487597957       -1.6862190506
 H         -3.7183896860        1.2486624998        1.4709243186
 H         -3.5124928062        0.6510093507       -2.0921299121
 H         -1.4772754359        1.1805061073       -3.4111552597
 H          0.5111339782        2.1165178975       -2.2958741900
 H          0.5027612390        2.9675422022        1.3832796933
 C          1.5016313285        3.8498034564       -0.2779959694
 C          0.8673165581        5.2015714898       -0.1538093714
 C          2.1333974915        4.8965261729        0.5875758048
 H          3.0521038862        5.3544053809        0.2531921849
 H          2.0780228056        4.7642257616        1.6586447904
 H          0.9139587166        5.8717418872       -0.9982375824
 H         -0.0478039914        5.2751489228        0.4147326743
 H          2.0030259121        3.6113072613       -1.2052961429
