  62
        -98.93754361
 C         -1.9959915650       -0.9462410669        0.0397337452
 C         -2.2580966622        0.0591887642        0.9951434377
 C         -2.5690862800        1.4061080314        0.4811846354
 C         -2.5578589543        1.6074389518       -0.8497828889
 C         -2.8833318160        2.8724209320       -1.5980045178
 C         -4.3949278153        3.1526494712       -1.6565434172
 C         -5.1485639697        2.9072124660       -0.3516452923
 H         -6.2163711249        3.0143487846       -0.5595318761
 H         -4.9823623707        1.8772162586       -0.0306182970
 C         -4.7988749593        3.8571357240        0.7911879084
 H         -5.4505347843        3.6083077635        1.6325499524
 H         -5.0246104221        4.8815877106        0.4868139622
 C         -3.3506859278        3.8083753534        1.2812224824
 H         -3.3054313077        4.3642582586        2.2225369517
 H         -2.6861912067        4.3190659084        0.5894418305
 C         -2.8219956335        2.4087559197        1.5814384727
 H         -1.8668382792        2.5040775068        2.1142812261
 H         -3.4982074810        1.9136459662        2.2880525198
 H         -4.5423322654        4.1852891691       -1.9765782851
 H         -4.8274135655        2.4974479855       -2.4163653112
 H         -2.3452567961        3.7085245420       -1.1610246269
 H         -2.5136524617        2.7372044855       -2.6167697693
 O         -2.2803593289        0.6096156475       -1.7367311927
 C         -1.9780145158       -0.6749193248       -1.3272336058
 O         -1.7253291433       -1.4679528414       -2.2550902264
 O         -2.2436023231       -0.1571462952        2.2399312512
 C         -1.6463799287       -2.3437464094        0.5108141271
 C         -0.2574178153       -2.7281851271        0.0598904953
 C          0.0858904379       -4.0255300781       -0.2997955999
 C          1.3823528354       -4.3263516773       -0.6805809958
 C          2.3585986373       -3.3487009663       -0.7116685436
 C          2.0239623547       -2.0448041427       -0.3589053524
 C          0.7298734282       -1.7514366412        0.0363350206
 H          0.4852035183       -0.7382550957        0.3219442816
 N          2.9815716968       -1.0209632103       -0.4352430059
 S          2.7785831651        0.4178586670        0.4098218103
 O          2.5630492314        0.1552467242        1.8164934911
 O          1.7804894049        1.2191177750       -0.2549939896
 C          4.3910179385        1.1373091132        0.1630497091
 C          4.6644700275        1.7397777490       -1.0505306555
 C          5.9252349679        2.2735378283       -1.2647075400
 C          6.8867769199        2.1955129552       -0.2678779638
 C          6.5974383097        1.5894191984        0.9453038876
 C          5.3384121289        1.0526835245        1.1655822494
 H          5.0643451783        0.5792605806        2.0946202084
 H          7.3457300373        1.5329275799        1.7192346581
 H          7.8669579767        2.6122383938       -0.4372566178
 H          6.1524940745        2.7476136917       -2.2058795191
 H          3.8819639403        1.7828397222       -1.7904127479
 H          3.9349324244       -1.3539438723       -0.4104510368
 H          3.3668556218       -3.5837773997       -1.0157391707
 H          1.6355015018       -5.3385172695       -0.9573470937
 H         -0.6627788020       -4.8005836204       -0.2837913915
 H         -1.6409501713       -2.2890754756        1.6110160658
 C         -2.7108799408       -3.3307517425        0.0754039568
 C         -3.0536086567       -4.5116660091        0.9323966853
 C         -4.0107625077       -3.3646654301        0.8202764803
 H         -4.9233445689       -3.5022054928        0.2601841771
 H         -4.1123113302       -2.6975090641        1.6641046079
 H         -3.3129345995       -5.4411197082        0.4482299529
 H         -2.5149437670       -4.6296869435        1.8605610797
 H         -2.7472461049       -3.4482281875       -1.0019140763
