  62
        -98.94507587
 C          1.0981310216        1.2015828102        0.4671554628
 C          1.6871612652        0.6810851487       -0.7133427499
 C          2.4638019607       -0.5568866412       -0.5460954176
 C          2.5542149155       -1.1434575494        0.6597813196
 C          3.2698758445       -2.4292390672        0.9734161031
 C          4.7773735364       -2.2652611948        1.2106713574
 C          5.6066936821       -1.9766329869       -0.0412588896
 H          6.6558308608       -2.1035302217        0.2330993173
 H          5.3779172704       -2.7194677138       -0.8061850673
 C          5.4147783521       -0.5667347666       -0.6174040165
 H          4.9521431511        0.0750520841        0.1357846807
 H          6.3894273682       -0.1335525654       -0.8529143595
 C          4.5753669640       -0.5125643868       -1.8942009425
 H          5.0935966189       -1.0410282896       -2.6976057283
 H          4.4698746814        0.5336258867       -2.1926861104
 C          3.1683915395       -1.1065382198       -1.7486207675
 H          2.5806472970       -0.8339692812       -2.6292755609
 H          3.2198875591       -2.1943065307       -1.6948555461
 H          4.9308920854       -1.4673737838        1.9407772283
 H          5.1397817342       -3.1959562310        1.6531861958
 H          2.8179810556       -2.8212060114        1.8873681574
 H          3.1002728063       -3.1460595515        0.1689516206
 O          1.9628012249       -0.6225737672        1.7675559553
 C          1.2402395614        0.5585648442        1.6994271084
 O          0.7738637503        0.9288002643        2.7957079593
 H         -0.7718406060        0.5623710618       -1.2217676093
 C         -1.5373031286        1.1588731701       -0.7523258919
 C         -1.1994008574        2.1703908163        0.1328244406
 C         -2.2212217164        2.9333737594        0.6896435525
 C         -3.5425988953        2.6885847209        0.3658852405
 C         -3.8762310061        1.6582515631       -0.4957094342
 C         -2.8648603105        0.8866460361       -1.0528956546
 N         -3.1606718583       -0.1924159751       -1.9065689692
 S         -2.4505528049       -1.6697925005       -1.5568260793
 O         -1.0675063232       -1.6790265445       -1.9555804211
 O         -3.3051383479       -2.6419058025       -2.2049680578
 C         -2.5970295860       -1.8052059602        0.2145564792
 C         -1.5127591594       -1.5001033494        1.0105355020
 C         -1.6661230649       -1.5035034738        2.3877706990
 C         -2.8973452853       -1.8186285855        2.9413702030
 C         -3.9753038496       -2.1382240885        2.1289705098
 C         -3.8293238362       -2.1237039725        0.7516723766
 H         -4.6408628878       -2.3678937386        0.0854463256
 H         -4.9283754732       -2.3894106226        2.5657090131
 H         -3.0132518087       -1.8143678670        4.0136498811
 H         -0.8272998359       -1.2359738905        3.0118594375
 H         -0.5685558782       -1.2612343285        0.5459883259
 H         -4.1473638641       -0.3146654956       -2.0873120381
 H         -4.9079685857        1.4512891777       -0.7351350329
 H         -4.3232843970        3.2923745173        0.8020019139
 H         -1.9731988767        3.7187269200        1.3870026989
 C          0.2424114111        2.4549217463        0.4923553835
 H          0.2563327546        2.8054083377        1.5343222614
 C          0.7821538189        3.5660477442       -0.3900053325
 C          0.5818449940        4.9972529029        0.0031964270
 C          1.9455251827        4.3811559498        0.0858424489
 H          2.6964252260        4.6735630216       -0.6325106893
 H          2.3439956100        4.1548056933        1.0645474558
 H          0.0685589327        5.2016369155        0.9302011834
 H          0.3904879064        5.7201042333       -0.7748193038
 H          0.7477355733        3.3223969474       -1.4441783627
 O          1.5805688999        1.1982767242       -1.8561045823
