  62
        -98.93580014
 C          2.3018143323        1.4418888957        0.1336849673
 C          2.4911561644        0.3088798299       -0.6897450652
 C          3.5555192468       -0.6339188200       -0.2865951489
 C          4.2785784699       -0.3791036738        0.8179263916
 C          5.4055661540       -1.1795425493        1.4199219503
 C          6.4650086687       -1.7149745032        0.4442049459
 C          6.4156154884       -3.2333473540        0.2676454348
 H          7.3967680835       -3.5789987818       -0.0652925983
 H          6.2219324125       -3.6902095212        1.2403452440
 C          5.3831186852       -3.7354306079       -0.7401990088
 H          5.7161050140       -3.4905475583       -1.7511477180
 H          5.3494404196       -4.8248300311       -0.6645346150
 C          3.9661575840       -3.1879819168       -0.5545849425
 H          3.7050871066       -3.1486239777        0.5024182729
 H          3.2728995015       -3.8892097474       -1.0247745197
 C          3.7476760426       -1.8125295353       -1.2024224296
 H          2.8403284881       -1.8379778539       -1.8141018765
 H          4.5674620994       -1.5912977475       -1.8923272367
 H          7.4467379387       -1.4542345599        0.8426836214
 H          6.3657626770       -1.2181842980       -0.5196855081
 H          5.8730100060       -0.5078374096        2.1434830030
 H          4.9777857451       -2.0053314381        1.9936991411
 O          4.0434259629        0.7135583139        1.5986921084
 C          3.0665687957        1.6367704963        1.2875087963
 O          2.9795061856        2.5816043330        2.0965398682
 O          1.8189991899        0.0715763313       -1.7301739402
 C          1.2622489314        2.5157811818       -0.1547758581
 C         -0.1146379290        2.0193102633        0.2168411384
 C         -0.7049431326        2.4216311065        1.4102134070
 C         -1.9531456829        1.9487428562        1.7733509952
 C         -2.6370945940        1.0649182950        0.9573172533
 C         -2.0478615281        0.6425587685       -0.2267356714
 C         -0.8004485226        1.1276501507       -0.5947929248
 H         -0.3382346640        0.7759597730       -1.5044120657
 N         -2.7278918238       -0.2603861936       -1.0620971716
 S         -3.4149275586       -1.6244465066       -0.3670728976
 O         -2.7099035180       -2.0297877025        0.8275656765
 O         -3.4884130360       -2.5993604726       -1.4335517966
 C         -5.0664502129       -1.0976359666        0.0440457854
 C         -5.8374432917       -0.5361883996       -0.9550716039
 C         -7.1271059924       -0.1275144344       -0.6556323623
 C         -7.6231365152       -0.2894288961        0.6294927772
 C         -6.8383562762       -0.8588479030        1.6203958096
 C         -5.5466170836       -1.2684624586        1.3276128694
 H         -4.8981569946       -1.7104222344        2.0674963729
 H         -7.2255660624       -0.9847014540        2.6187516898
 H         -8.6272711863        0.0296884995        0.8601600969
 H         -7.7402729152        0.3155123355       -1.4237542544
 H         -5.4158614275       -0.4313642613       -1.9407150617
 H         -2.2047480290       -0.5069296052       -1.8904957237
 H         -3.6079232620        0.6897587257        1.2370691170
 H         -2.3994361840        2.2716470647        2.7016010861
 H         -0.1663488746        3.0967940026        2.0598628827
 H          1.5084235111        3.3462595455        0.5200306185
 C          1.3284823346        3.0242659031       -1.5812338879
 C          0.7054047139        4.3463923385       -1.9091586219
 C          2.1971440106        4.2033547261       -1.8955337253
 H          2.7274010977        4.2154704338       -2.8360263368
 H          2.7464603789        4.6510545153       -1.0799441359
 H          0.2085030440        4.4600140983       -2.8602792071
 H          0.2421868418        4.8927915730       -1.1015833945
 H          1.2742354354        2.2411610372       -2.3254793864
