  62
        -98.93828957
 C          2.2008065925        1.0316452994        0.5643322292
 C          2.3436861561        0.1795741934       -0.5562546160
 C          3.1273693950       -1.0503494758       -0.3425374341
 C          3.6204185589       -1.3174152360        0.8786988824
 C          4.4092147060       -2.5212969681        1.3301126409
 C          5.5180749382       -3.0311013278        0.3988474640
 C          6.2281084032       -1.9455554280       -0.4232454784
 H          5.9567199302       -0.9562732992       -0.0510545513
 H          7.3068676608       -2.0561610255       -0.2989133796
 C          5.9170985422       -2.0308745244       -1.9195594256
 H          6.7015358500       -1.5077796790       -2.4715907239
 H          5.9469595196       -3.0793511278       -2.2238894256
 C          4.5814729325       -1.4241957307       -2.3484436858
 H          4.4290647131       -1.6571614813       -3.4049699710
 H          4.6244214231       -0.3350599416       -2.2634277732
 C          3.3527733883       -1.9028418959       -1.5577665402
 H          2.4695212587       -1.7661087381       -2.1883515436
 H          3.4333632917       -2.9567152818       -1.3017489017
 H          5.1080748730       -3.7781008049       -0.2795019782
 H          6.2458985957       -3.5452888451        1.0287756592
 H          3.7046061556       -3.3350066014        1.5266269455
 H          4.8421673092       -2.2322682098        2.2908655285
 O          3.4193838532       -0.4871473456        1.9421960627
 C          2.7138778041        0.6974653791        1.8153941032
 O          2.6067036567        1.3489619633        2.8751408796
 O          1.8391804382        0.4266400310       -1.6817848084
 C          1.4246958810        2.3306082472        0.4369629899
 C          0.0005606039        2.0338921589        0.0320894297
 C         -0.6520839415        2.6716910355       -1.0138692963
 C         -1.9544355074        2.3309028718       -1.3375872207
 C         -2.6344905538        1.3605842558       -0.6254024991
 C         -1.9930683437        0.7207714794        0.4275148661
 C         -0.6899150232        1.0643762978        0.7495828444
 H         -0.1887748849        0.5617758425        1.5690155126
 N         -2.6806180984       -0.2583865995        1.1691204947
 S         -3.3838573223       -1.5271539943        0.3190651279
 O         -3.4534043112       -2.6204485163        1.2649193787
 O         -2.6872347635       -1.7909429737       -0.9185802556
 C         -5.0336784853       -0.9464602255       -0.0148288964
 C         -5.8218611630       -0.5764479752        1.0574011600
 C         -7.1102465844       -0.1268527106        0.8166590506
 C         -7.5867396018       -0.0580343783       -0.4842114442
 C         -6.7840233936       -0.4364312177       -1.5494581736
 C         -5.4936337899       -0.8862816397       -1.3156558336
 H         -4.8309156922       -1.1859862175       -2.1119830184
 H         -7.1560635675       -0.3824517367       -2.5599604158
 H         -8.5897639710        0.2927628318       -0.6689545775
 H         -7.7374278197        0.1679605462        1.6424596949
 H         -5.4140760747       -0.6494963769        2.0517803305
 H         -2.1460750869       -0.6180793449        1.9471769845
 H         -3.6464881680        1.0896825816       -0.8781652644
 H         -2.4468436182        2.8288981633       -2.1588070915
 H         -0.1380490857        3.4273411195       -1.5844132773
 H          1.4058689699        2.7721953162        1.4442808300
 C          2.1397469951        3.2809771517       -0.5000236437
 C          1.9838547935        4.7619456137       -0.3346965816
 C          3.2770934547        4.0990846741        0.0306301197
 H          4.1374931034        4.2578814096       -0.6020247672
 H          3.5207036540        3.9888453962        1.0776464688
 H          1.9592420854        5.3800582232       -1.2193389490
 H          1.3506393097        5.1112497186        0.4666547154
 H          2.2359612193        2.8820086008       -1.5031604461
