  62
        -98.93283449
 C         -2.0123083712       -1.4286100095       -0.2804871174
 C         -1.7164462079       -0.1326963583        0.2064477277
 C         -2.8389025967        0.5846086903        0.8310705727
 C         -4.0413916384       -0.0114998809        0.9178610009
 C         -5.2799021529        0.6330335169        1.4681147915
 C         -6.0742613847        1.3440108104        0.3630126028
 C         -5.2253072023        2.2560160004       -0.5229551878
 H         -4.5173432322        1.6450779046       -1.0875182045
 H         -5.8977709287        2.7205005746       -1.2475012781
 C         -4.4591309285        3.3483157717        0.2364544788
 H         -4.8949195699        3.4855305407        1.2268015849
 H         -4.5721618861        4.2924378002       -0.3005797604
 C         -2.9575973468        3.0902833883        0.3752025301
 H         -2.5351773227        2.8593335710       -0.6059302040
 H         -2.4863542427        4.0109112726        0.7296698743
 C         -2.5658820555        1.9696558486        1.3465613488
 H         -1.4844559277        2.0230920619        1.5043731327
 H         -3.0581975578        2.1277785313        2.3081785787
 H         -6.8702358488        1.9261750900        0.8310157863
 H         -6.5376234625        0.5853738955       -0.2721879857
 H         -5.9055830209       -0.1441509748        1.9103231316
 H         -4.9998987371        1.3437179585        2.2434211770
 O         -4.2789791107       -1.2687499425        0.4620657269
 C         -3.2772639797       -2.0017769680       -0.1530866764
 O         -3.6284901313       -3.1375535102       -0.5341514114
 H          1.7230528471       -1.2859079822       -1.4768253653
 C          1.5558543877       -1.7236038300       -0.5086136776
 C          0.3162874940       -2.2252980150       -0.1451985392
 C          0.1854088876       -2.7461044805        1.1447308295
 C          1.2382943384       -2.7464624897        2.0364501941
 C          2.4732485817       -2.2443525339        1.6631280702
 C          2.6239788889       -1.7329617248        0.3841530913
 N          3.8867212155       -1.2436417967       -0.0121237370
 S          4.5118419362        0.1234045627        0.7266775409
 O          5.9091205276        0.1666681667        0.3573940679
 O          4.2238265240        0.0676962518        2.1366740765
 C          3.6682571037        1.4997951187       -0.0348379039
 C          4.3762603106        2.3509614197       -0.8615840812
 C          3.7075921448        3.3942366619       -1.4811117691
 C          2.3460783162        3.5610513588       -1.2745209953
 C          1.6502122838        2.6947540487       -0.4460170212
 C          2.3144366614        1.6547444837        0.1846335522
 H          1.7797318882        0.9651824492        0.8178427957
 H          0.5875637545        2.7953409271       -0.2938356170
 H          1.8230057516        4.3679647961       -1.7635146543
 H          4.2467843864        4.0690730649       -2.1264934972
 H          5.4315195937        2.1779435255       -0.9984740141
 H          3.9880728169       -1.1496801270       -1.0133213539
 H          3.3061021343       -2.2248411496        2.3463136081
 H          1.1005080907       -3.1462795343        3.0300576598
 H         -0.7758525061       -3.1421841848        1.4457857941
 C         -0.9410895357       -2.2590422917       -0.9809733311
 H         -1.3110895180       -3.2971552046       -0.9406672132
 C         -0.9498914108       -1.8826414727       -2.4558356260
 C         -0.2655993990       -0.6916704879       -3.0508102286
 C          0.1754352577       -2.0771837571       -3.4264887484
 H         -0.0782200983       -2.4322854977       -4.4146824065
 H          1.1160451811       -2.4580550180       -3.0645073541
 H          0.3445217414       -0.0813787553       -2.4042821260
 H         -0.8099297522       -0.1168497685       -3.7865643273
 H         -1.9424921911       -2.0918893555       -2.8507472607
 O         -0.5840167672        0.4031457121        0.1301694676
