  62
        -98.94878305
 C         -0.9374504732       -1.2860233963        0.0467590681
 C         -1.9056804798       -1.0330459223        1.0451785004
 C         -2.6357580685        0.2353749327        0.9253444664
 C         -2.3254052767        1.0789627877       -0.0759830822
 C         -3.0200493579        2.3833526322       -0.3394367339
 C         -4.1952680003        2.2010833523       -1.3098896049
 C         -5.1365540156        1.0587350519       -0.9283230240
 H         -5.9450154290        1.0435852075       -1.6623093525
 H         -4.6014116733        0.1107815875       -1.0183065270
 C         -5.7303205287        1.1707339617        0.4827919547
 H         -6.7978214465        0.9459041916        0.4331196696
 H         -5.6317914107        2.1939359383        0.8472735232
 C         -5.1212823428        0.2093336901        1.5053372988
 H         -5.1346269881       -0.8077386984        1.1053385559
 H         -5.7519906397        0.2177392840        2.3983942658
 C         -3.6897974409        0.5296526212        1.9552221510
 H         -3.6287842883        1.5696084355        2.2840443783
 H         -3.4581222035       -0.1110617563        2.8115775188
 H         -3.7937646473        1.9956732208       -2.3045922533
 H         -4.7552004134        3.1369951319       -1.3540060873
 H         -2.2998443683        3.0755353029       -0.7781066643
 H         -3.3731279716        2.7965663405        0.6035876989
 O         -1.3694019326        0.8143169564       -1.0013961324
 C         -0.6499487619       -0.3708027539       -0.9661471351
 O          0.1971339611       -0.4873866867       -1.8702679492
 O         -2.1478202824       -1.8313255246        1.9926487077
 C         -0.1440372763       -2.5761949454        0.0977787196
 C          1.3395869966       -2.3046978209        0.1476430618
 C          2.2744770120       -3.1600303570       -0.4244518942
 C          3.6269337276       -2.8802415613       -0.3400000547
 C          4.0761050274       -1.7391610223        0.2989852932
 C          3.1491328860       -0.8793347687        0.8771172596
 C          1.7975775241       -1.1756568590        0.8132387195
 H          1.0934975529       -0.5030166077        1.2807244152
 N          3.5618665999        0.2931052650        1.5315401596
 S          2.6627599327        1.6902842728        1.4048283290
 O          3.5832753247        2.7359111173        1.8063423431
 O          1.4596601834        1.5931205534        2.1956516799
 C          2.2480923781        1.9264665037       -0.3144387148
 C          3.0971543868        1.4884500394       -1.3098632539
 C          2.7699595327        1.7484867178       -2.6302888785
 C          1.6158816029        2.4516560856       -2.9327222049
 C          0.7804342969        2.8961639053       -1.9218451059
 C          1.0961872860        2.6292325783       -0.6003649450
 H          0.4622148047        2.9367322540        0.2173490633
 H         -0.1219697397        3.4367967563       -2.1594628792
 H          1.3603308032        2.6476357178       -3.9621150901
 H          3.4139666621        1.3947913755       -3.4192263093
 H          3.9906623433        0.9407279133       -1.0591351373
 H          4.5521661621        0.4851679019        1.4893138902
 H          5.1303713870       -1.5141005084        0.3539851624
 H          4.3410192533       -3.5540775081       -0.7880689368
 H          1.9418711279       -4.0467430495       -0.9387772126
 H         -0.4347395024       -3.0635087461        1.0414779395
 C         -0.5403115426       -3.4771424152       -1.0563071976
 C         -0.5842050401       -4.9656821374       -0.8862287271
 C         -1.8590276634       -4.1863470017       -0.9959454264
 H         -2.4431495406       -4.2703187047       -1.9000711164
 H         -2.4529483570       -4.0470475100       -0.1041233868
 H         -0.2946706767       -5.5886143733       -1.7191859620
 H         -0.3222153661       -5.3683313423        0.0806636652
 H         -0.2300230632       -3.0781564141       -2.0156216543
