  62
        -98.93922850
 C         -2.4355071700       -0.8391408718        0.2480081703
 C         -2.7760559701        0.4919052581        0.6012521707
 C         -3.8743959902        1.1095680182       -0.1510520890
 C         -4.4650065803        0.4106037585       -1.1373643991
 C         -5.6295900404        0.8913183786       -1.9526697489
 C         -6.9628834703        0.4774664183       -1.3141938589
 C         -7.0613610502        0.8034794078        0.1760583212
 H         -8.0540336001        0.4957348876        0.5116083213
 H         -6.3350493801        0.1972979977        0.7222865210
 C         -6.8423693603        2.2839371477        0.5178349817
 H         -6.9656148004        2.8935233380       -0.3780139181
 H         -7.6085599202        2.5964588574        1.2304494519
 C         -5.4872236402        2.5929622777        1.1571217116
 H         -5.3170977301        1.9188258874        2.0004787814
 H         -5.5223252503        3.6108826675        1.5545446520
 C         -4.2740147403        2.5094506081        0.2219473115
 H         -3.4156452203        2.9353132180        0.7501100015
 H         -4.4565738405        3.1090970383       -0.6723388883
 H         -7.0854495702       -0.6010134917       -1.4375129892
 H         -7.7719535904        0.9753174784       -1.8515942286
 H         -5.5786586305        1.9745483186       -2.0447040885
 H         -5.5595559405        0.4474598689       -2.9471245190
 O         -4.0898464302       -0.8473420114       -1.4739973796
 C         -3.0706048700       -1.5100637715       -0.7982001499
 O         -2.8511735200       -2.6556789714       -1.2291885002
 O         -2.1883217501        1.1300862079        1.5173064308
 C         -1.3154923099       -1.4828937019        1.0465793300
 C          0.0111422200       -1.1972508616        0.3905300999
 C          0.2547582899       -1.5572850712       -0.9318768702
 C          1.4719790699       -1.2692867609       -1.5207274303
 C          2.4646386599       -0.6130200810       -0.8125877102
 C          2.2222372900       -0.2262824314        0.4979742900
 C          1.0025328201       -0.5288784717        1.0921257300
 H          0.8129138201       -0.2164941220        2.1101484501
 N          3.2185472700        0.4408133985        1.2256692801
 S          4.1206553898        1.6462150688        0.4864322204
 O          4.5948068598        2.4739425785        1.5737190506
 O          3.3729322696        2.3141018690       -0.5530306794
 C          5.5017238298        0.7669881591       -0.2153408801
 C          6.2296074900       -0.0687432311        0.6090385196
 C          7.3142651600       -0.7505904108        0.0813808093
 C          7.6534996198       -0.5838958104       -1.2531354607
 C          6.9151513397        0.2614508998       -2.0668587004
 C          5.8281070796        0.9457646396       -1.5452726900
 H          5.2226348195        1.6094627897       -2.1422324398
 H          7.1803873095        0.3904281602       -3.1039411303
 H          8.4983387398       -1.1157308401       -1.6614231109
 H          7.8906690001       -1.4091945709        0.7109274190
 H          5.9362518401       -0.1686868914        1.6406235096
 H          2.9356641200        0.7155643182        2.1551046702
 H          3.4108127898       -0.3811764708       -1.2731499902
 H          1.6512862898       -1.5579541205       -2.5453894204
 H         -0.5221194101       -2.0594575411       -1.4888122703
 H         -1.3241800498       -0.9502708922        2.0111090901
 C         -1.5447878497       -2.9579165020        1.3438798495
 C         -0.6832030296       -4.0605744218        0.8134208691
 C         -0.6028567495       -3.6829257722        2.2599073392
 H         -1.0112368394       -4.3551181225        2.9991510490
 H          0.2767624405       -3.1477495822        2.5855653093
 H         -1.1709409896       -4.9841449717        0.5417108389
 H          0.1455510303       -3.8026682215        0.1737752291
 H         -2.5994750097       -3.1885564522        1.4520462896
