  62
        -98.93572265
 C         -2.2271724660       -0.2098485935        0.3819682177
 C         -3.3416054076       -0.7708136391       -0.2907969697
 C         -4.4016277910        0.1777901912       -0.6734911736
 C         -4.2476094797        1.4882225375       -0.4165818462
 C         -5.2661731775        2.5493251036       -0.7150476463
 C         -6.2049879749        2.7698637796        0.4793656796
 C         -6.7899301584        1.4784797429        1.0514364416
 H         -5.9827551925        0.8851941803        1.4874082169
 H         -7.4591351017        1.7587096569        1.8678090442
 C         -7.5556496277        0.6222181614        0.0330982042
 H         -8.4882278760        0.2853603224        0.4906438523
 H         -7.8204494960        1.2276404924       -0.8343920193
 C         -6.8097149677       -0.6298616146       -0.4318909096
 H         -6.4609361554       -1.1924948641        0.4377402629
 H         -7.5168905169       -1.2659165098       -0.9707674200
 C         -5.6131790248       -0.3878472707       -1.3605242281
 H         -5.9164388088        0.2495099426       -2.1933605135
 H         -5.3033214353       -1.3568496543       -1.7624138060
 H         -5.6445393739        3.2721706711        1.2713807481
 H         -7.0148051071        3.4305216905        0.1645443379
 H         -4.7386054026        3.4805042994       -0.9284009177
 H         -5.8397904394        2.2582276302       -1.5928360635
 O         -3.1472248722        1.9955695662        0.1981437772
 C         -2.1268062413        1.1630308305        0.6232420820
 O         -1.1941907498        1.7563511878        1.2045384214
 O         -3.4654359388       -1.9904926148       -0.5679113429
 C         -1.0548376890       -1.0393923028        0.8801897759
 C         -0.0127406112       -1.1987729699       -0.1973417190
 C         -0.3503510505       -1.6601628404       -1.4664066665
 C          0.6202522175       -1.7956842261       -2.4414743617
 C          1.9385426742       -1.4710981491       -2.1740473094
 C          2.2875736456       -1.0142520233       -0.9084488601
 C          1.3111181431       -0.8819242740        0.0696796560
 H          1.5904124613       -0.5047379673        1.0420703711
 N          3.6286750925       -0.7220784189       -0.6021531627
 S          3.9682585820        0.5965947198        0.3986281390
 O          3.7156978134        0.2181670254        1.7658247170
 O          3.2872732308        1.7760538287       -0.0866107765
 C          5.7257119563        0.7425892236        0.1331651768
 C          6.2008977421        1.6689614641       -0.7757076353
 C          7.5671181124        1.7545150555       -0.9937289702
 C          8.4297676680        0.9148781920       -0.3052690317
 C          7.9379203859       -0.0096480027        0.6043113277
 C          6.5732920608       -0.0994404748        0.8280641542
 H          6.1457376689       -0.7946516288        1.5314252021
 H          8.6118909185       -0.6585737274        1.1398419305
 H          9.4923870692        0.9837307876       -0.4765363848
 H          7.9523590307        2.4746962822       -1.6974496778
 H          5.4930313455        2.3073021326       -1.2799618930
 H          4.2136718599       -0.7016122589       -1.4272904099
 H          2.6934973703       -1.5729340275       -2.9389839416
 H          0.3463846441       -2.1527819976       -3.4228824294
 H         -1.3783206235       -1.9138632873       -1.6754561490
 H         -0.5995973655       -0.4385199268        1.6847560219
 C         -1.4808326971       -2.3663963197        1.4958368303
 C         -1.1653560074       -3.7005086456        0.8964421220
 C         -0.4500461123       -3.2513970289        2.1325521637
 H         -0.6845855256       -3.7258659015        3.0734520574
 H          0.5834480371       -2.9524412689        2.0340300273
 H         -1.9149403161       -4.4723861408        0.9797706779
 H         -0.6142490773       -3.7273132194       -0.0299073704
 H         -2.4334421346       -2.2847225389        2.0094289358
