  62
        -98.94615869
 C          1.4135440402        0.8900655797       -0.0509620084
 C          2.4837989101        0.8120792091        0.8765625517
 C          3.4076060701       -0.3174539108        0.7213649411
 C          3.1840753102       -1.2155454402       -0.2551651895
 C          4.0664802103       -2.3911554899       -0.5584330201
 C          5.1410604404       -2.0299882693       -1.5935690798
 C          5.9004861004       -0.7427732895       -1.2719505989
 H          6.6515627305       -0.6049519590       -2.0527168487
 H          5.2108703304        0.1019742306       -1.3355314784
 C          6.5838728302       -0.7354401803        0.1025553812
 H          7.5957508202       -0.3410046002       -0.0113093084
 H          6.6741052802       -1.7558260305        0.4768353506
 C          5.8843204500        0.1286557390        1.1534082717
 H          5.7066813301        1.1275671393        0.7473009723
 H          6.5579468699        0.2374990785        2.0075555618
 C          4.5540968800       -0.4168660913        1.6880982512
 H          4.6863717600       -1.4481961815        2.0223720605
 H          4.2688161299        0.1898639481        2.5526530215
 H          4.6573489806       -1.9092570287       -2.5656354798
 H          5.8440162705       -2.8619825092       -1.6649742302
 H          3.4423275704       -3.1935112797       -0.9563614207
 H          4.5340518802       -2.7334605605        0.3630295097
 O          2.1415641604       -1.1224624096       -1.1157887696
 C          1.2275538303       -0.0792945297       -1.0382469391
 O          0.3305006904       -0.1423873492       -1.9004479392
 O          2.6600131299        1.6610587586        1.7930096422
 C          0.4609256101        2.0573095196        0.1131399522
 C         -0.7450356000        1.7196455690        0.9628995918
 C         -1.4214584901        2.7322047486        1.6373600023
 C         -2.5311894502        2.4463239081        2.4096445520
 C         -2.9979302602        1.1480268380        2.5171198812
 C         -2.3301912301        0.1287464684        1.8498716206
 C         -1.2103777900        0.4202925289        1.0816948309
 H         -0.6985545299       -0.3884951608        0.5846243905
 N         -2.7666566500       -1.2018786916        1.9511012297
 S         -2.8247433098       -2.1574313908        0.5751110391
 O         -3.7038105999       -3.2480138810        0.9440035783
 O         -1.4946674998       -2.5332658605        0.1701933491
 C         -3.6319910097       -1.1222160401       -0.6313972703
 C         -2.9029204496       -0.4281236995       -1.5743535798
 C         -3.5759894395        0.4298493510       -2.4323898394
 C         -4.9497466095        0.5794907510       -2.3343097795
 C         -5.6675864196       -0.1319032096       -1.3842127700
 C         -5.0037737697       -0.9873568702       -0.5217341404
 H         -5.5232516798       -1.5677207106        0.2237381491
 H         -6.7373830996       -0.0194597797       -1.3122248101
 H         -5.4630087995        1.2517875314       -3.0036420091
 H         -3.0127075594        0.9769715315       -3.1719176490
 H         -1.8333741496       -0.5576304894       -1.6369304298
 H         -3.6025329901       -1.3235082820        2.5049402395
 H         -3.8630145702        0.9207367076        3.1208592809
 H         -3.0408535603        3.2405222877        2.9329513524
 H         -1.0629806301        3.7470494086        1.5633515630
 H          1.0357043300        2.8225377992        0.6550943527
 C         -0.0013693097        2.6495893204       -1.2060220475
 C         -0.2183278397        4.1259633404       -1.3376375666
 C          0.9500959804        3.4770668509       -2.0155131469
 H          0.9404579805        3.3677408115       -3.0893377670
 H          1.9354960003        3.6451447107       -1.6050400167
 H         -1.0397914697        4.4709712908       -1.9461211465
 H         -0.0128439899        4.7482000599       -0.4801276462
 H         -0.6671215296        1.9933305307       -1.7514869280
