  62
        -98.94173502
 C         -2.1170676471       -0.8253534536        0.2592504578
 C         -2.9809527559       -0.2339004999        1.2157430676
 C         -3.7544445986        0.9261637853        0.7597520639
 C         -3.5548189811        1.4136889327       -0.4777820487
 C         -4.2463263943        2.6054570323       -1.0823156117
 C         -5.6178857010        2.2869657668       -1.6936302477
 C         -6.7319934122        2.0088634407       -0.6835608482
 H         -6.7726721628        2.8210031947        0.0429439886
 H         -7.6737464109        2.0180522945       -1.2357275845
 C         -6.6025095787        0.6658624028        0.0487195577
 H         -7.5700405291        0.1590751514        0.0544438441
 H         -5.9076923008        0.0212791018       -0.4949179868
 C         -6.1412133991        0.7780523673        1.5019581914
 H         -6.8953265459        1.3103283956        2.0856689688
 H         -6.0490792338       -0.2312096819        1.9115788149
 C         -4.7929341844        1.4879290423        1.6830869744
 H         -4.4513978665        1.3215907524        2.7077513799
 H         -4.9064384100        2.5597637388        1.5216609225
 H         -5.9114527778        3.1477597115       -2.2988142706
 H         -5.5107800294        1.4310008613       -2.3640361647
 H         -4.3543059142        3.3873860654       -0.3298269535
 H         -3.5917383209        2.9744848929       -1.8751168589
 O         -2.6525276923        0.8720701821       -1.3376035017
 C         -1.9265405366       -0.2675794874       -1.0064327458
 O         -1.1644436536       -0.6554629797       -1.9105254407
 O         -3.0939788732       -0.6521614175        2.3990643209
 C         -1.3297746616       -2.0510358245        0.6879981967
 C          0.1238196683       -1.8865405766        0.3222673796
 C          0.8139364977       -2.7492028269       -0.5178606945
 C          2.1437975816       -2.5141824642       -0.8215231546
 C          2.8130848636       -1.4254146628       -0.2945364471
 C          2.1305787176       -0.5524048947        0.5427461167
 C          0.8011691269       -0.7934829387        0.8498642477
 H          0.2670352857       -0.1077948905        1.4975914291
 N          2.8033187419        0.5549765234        1.0912754452
 S          3.6531903463        1.5620739605        0.0487423782
 O          3.7005979360        2.8415743185        0.7242731048
 O          3.0905613919        1.5582530437       -1.2815302164
 C          5.2899883706        0.8605537564        0.0270293876
 C          5.8654400145        0.4931529880       -1.1734614589
 C          7.1427027960       -0.0459643602       -1.1670080467
 C          7.8181765417       -0.2059626304        0.0331448757
 C          7.2272454008        0.1711426673        1.2300159333
 C          5.9512796125        0.7115109245        1.2304834184
 H          5.4579952314        1.0210252660        2.1366494867
 H          7.7558650492        0.0456248500        2.1611561365
 H          8.8112801829       -0.6267217998        0.0355101793
 H          7.6034715580       -0.3388063119       -2.0967459059
 H          5.2991037806        0.6313604542       -2.0809525486
 H          2.2300348008        1.1045480420        1.7154192042
 H          3.8464889016       -1.2365940860       -0.5351457414
 H          2.6662901143       -3.1883943893       -1.4829457392
 H          0.3038351630       -3.5899763061       -0.9579987294
 H         -1.4018876287       -2.0452766228        1.7890223688
 C         -1.9276736611       -3.3713639195        0.2262739085
 C         -3.3999042705       -3.5044976437       -0.0210606974
 C         -2.4380148618       -3.5808392825       -1.1666939645
 H         -2.2740865492       -4.5416805392       -1.6324712809
 H         -2.3797325777       -2.7491949439       -1.8511192965
 H         -3.8951759281       -4.4088204407        0.2991797525
 H         -4.0065025190       -2.6159263923        0.0791714843
 H         -1.4434569964       -4.2202125074        0.6992166836
