  62
        -98.94185385
 C         -0.8383487971       -1.3349037581        0.4766376832
 C         -1.2662712736       -0.7024612281       -0.7123915073
 C         -2.2137159115        0.4158176392       -0.5519044727
 C         -2.5228432763        0.8345833005        0.6873194159
 C         -3.4987668959        1.9108564432        1.0790870673
 C         -4.8835933760        1.3070167074        1.3698258003
 C         -5.7913003214        1.1667615490        0.1484044920
 H         -6.6800451519        0.6167405697        0.4662220868
 H         -6.1175889075        2.1585575990       -0.1714730167
 C         -5.1679541540        0.4453826675       -1.0493774368
 H         -4.6142864803       -0.4292311731       -0.7029156743
 H         -5.9811474056        0.0829235087       -1.6812007433
 C         -4.2493199599        1.3472240240       -1.8875906796
 H         -4.3927563283        2.3836018611       -1.5834871112
 H         -4.5462581249        1.2887579468       -2.9366490124
 C         -2.7573049814        0.9903769722       -1.8310438577
 H         -2.1660935307        1.8715018200       -2.0958574695
 H         -2.5352976409        0.2323473346       -2.5886276442
 H         -5.3946562496        1.9369525994        2.1008873408
 H         -4.7327479693        0.3281782393        1.8325409950
 H         -3.1165389744        2.3585466499        1.9992921648
 H         -3.5639374759        2.6770424640        0.3122560223
 O         -1.9953498815        0.2649830998        1.8083437681
 C         -1.1825076331       -0.8507907094        1.7373959800
 O         -0.8332904330       -1.3090090653        2.8452302702
 O         -0.8996343507       -1.0672642661       -1.8595471686
 C          0.0355866619       -2.5735206003        0.4033617185
 C          1.3312154724       -2.2562229060       -0.3017037993
 C          1.8177104591       -2.9817504815       -1.3807987642
 C          3.0227367997       -2.6364136207       -1.9677068993
 C          3.7668541705       -1.5750149010       -1.4884423181
 C          3.2948267063       -0.8510636115       -0.3979538615
 C          2.0829079135       -1.1908795540        0.1805596298
 H          1.7236867097       -0.6315787379        1.0327689874
 N          4.0535455328        0.1994868086        0.1335658081
 S          3.3808276769        1.4665835039        0.9695136691
 O          4.4431753266        2.4498415421        1.0186131820
 O          2.8758920777        1.0274641963        2.2461814223
 C          2.0605015087        2.1191204456       -0.0356955324
 C          0.8442194444        2.4069909814        0.5468459535
 C         -0.1316575943        3.0344898428       -0.2107814490
 C          0.1204972226        3.3486216730       -1.5366447056
 C          1.3393514214        3.0316090399       -2.1157549356
 C          2.3233353424        2.4194823258       -1.3578255360
 H          3.2894790956        2.1854332732       -1.7738047175
 H          1.5279955426        3.2689981167       -3.1502622242
 H         -0.6347799021        3.8510401176       -2.1206555837
 H         -1.0797050189        3.2774506989        0.2405311888
 H          0.6834254747        2.1385813681        1.5800535531
 H          4.8714578140        0.4645906850       -0.3933587834
 H          4.7088977892       -1.3104764431       -1.9433031060
 H          3.3871792462       -3.2027925341       -2.8110765032
 H          1.2527596417       -3.8137357832       -1.7665956707
 H          0.2774902450       -2.8345065775        1.4444985924
 C         -0.7366536895       -3.7178863631       -0.2201205931
 C         -0.3877687085       -5.1347304624        0.1195362624
 C         -1.6532404190       -4.5277677170        0.6447259885
 H         -2.5951593772       -4.8574854986        0.2325726051
 H         -1.7028872531       -4.2692844202        1.6929386845
 H         -0.4638009182       -5.8852710245       -0.6525981425
 H          0.4221371683       -5.2965824630        0.8147554609
 H         -1.0677763985       -3.4978050156       -1.2283541975
