  62
        -98.93122115
 C          2.0628614967        0.6677709057        0.2206902293
 C          2.3474721296       -0.5559619342        0.8768874605
 C          3.2300787713       -1.4882139436        0.1648003510
 C          3.6866362927       -1.1541437544       -1.0559801129
 C          4.6362172602       -1.9805494951       -1.8733476583
 C          6.0945018521       -1.5956338185       -1.5866432304
 C          6.4358801267       -1.5332112597       -0.0979037274
 H          7.4957379472       -1.2824396432       -0.0173130072
 H          5.8759746325       -0.7157656599        0.3621437560
 C          6.1579521510       -2.8318381331        0.6719910065
 H          6.0635673120       -3.6640478128       -0.0263843337
 H          7.0115533870       -3.0457070777        1.3185609946
 C          4.9207986507       -2.7838112794        1.5708147493
 H          4.9655859841       -1.8985862222        2.2103965826
 H          4.9398719512       -3.6601896484        2.2242293410
 C          3.5688455803       -2.7845304512        0.8456793202
 H          3.5322455127       -3.6131427237        0.1352783196
 H          2.7873798164       -2.9417536674        1.5953102465
 H          6.7455960007       -2.3188064071       -2.0809580634
 H          6.2842239400       -0.6121953968       -2.0224634333
 H          4.4760079552       -3.0337513502       -1.6511816662
 H          4.4235639979       -1.8040137517       -2.9289340473
 O          3.3695318290        0.0134050404       -1.6672499399
 C          2.5660851405        0.9636581074       -1.0467871645
 O          2.3918438125        1.9896464832       -1.7262141824
 H         -0.9895963554        0.2238145751        0.5685110492
 C         -1.0413489865        1.1371287940       -0.0086274129
 C          0.0084051500        2.0506445284        0.0576364231
 C         -0.0793873043        3.1975821718       -0.7221301565
 C         -1.1925539541        3.4280016215       -1.5127492522
 C         -2.2420394768        2.5308054796       -1.5493982136
 C         -2.1561112199        1.3630286591       -0.7989159150
 N         -3.1808464335        0.4042122984       -0.8550998406
 S         -3.4803441186       -0.5650109774        0.4913368807
 O         -3.4811336529        0.2373574229        1.6938990723
 O         -2.5741852147       -1.6862798064        0.4652804012
 C         -5.1359028020       -1.1181445946        0.1252713224
 C         -5.3084904636       -2.1718448121       -0.7524219129
 C         -6.5956255844       -2.5827617294       -1.0606804106
 C         -7.6827226471       -1.9375662453       -0.4896272710
 C         -7.4939152028       -0.8835224631        0.3915215427
 C         -6.2092528309       -0.4664405561        0.7028988980
 H         -6.0129190589        0.3418526253        1.3887865810
 H         -8.3404946578       -0.3864406316        0.8369846678
 H         -8.6831710186       -2.2606390821       -0.7305502131
 H         -6.7458702513       -3.4039188349       -1.7428535245
 H         -4.4336533899       -2.6488585199       -1.1629109951
 H         -4.0325967565        0.7591728078       -1.2673309521
 H         -3.1096182824        2.7188734701       -2.1632950547
 H         -1.2398629806        4.3270037467       -2.1086843839
 H          0.7277694059        3.9062192007       -0.7491423740
 C          1.1606582451        1.6574500446        0.9478207763
 H          0.7203740355        1.0605013166        1.7640001077
 C          1.9980229066        2.7206087977        1.6475047749
 C          2.7339853300        3.8350751509        0.9691825506
 C          1.5705522794        4.1399214881        1.8656606255
 H          1.7761767476        4.5857052933        2.8276493333
 H          0.6429392330        4.4645515278        1.4227274483
 H          2.6364026063        3.9348070584       -0.0993614705
 H          3.7270387659        4.0660119082        1.3284725306
 H          2.5329865943        2.2574175514        2.4740209430
 O          1.8878310475       -0.8521707423        2.0145874937
