  62
        -98.94538385
 C         -1.0954260848       -1.4432546981       -0.6634107055
 C         -2.4033115598       -1.6431564341       -0.1508027285
 C         -3.3491313198       -0.5398007313       -0.3441575276
 C         -2.9505176511        0.5733259223       -0.9860295650
 C         -3.7965066856        1.7870365426       -1.2610508213
 C         -3.8764344192        2.7722757246       -0.0867813338
 C         -4.7267530679        2.3111243387        1.0974027277
 H         -4.8770432446        3.1796538827        1.7417867038
 H         -5.7086454089        1.9981767025        0.7412216110
 C         -4.0941265023        1.1849028525        1.9269540586
 H         -3.0281428079        1.1161927204        1.6976386711
 H         -4.1796946768        1.4216976280        2.9898392015
 C         -4.7306734400       -0.1885937028        1.7160718478
 H         -5.7652409704       -0.1725803606        2.0663042489
 H         -4.1823711565       -0.9175033401        2.3182061395
 C         -4.7149361222       -0.6706982598        0.2597321095
 H         -4.9845347112       -1.7296403589        0.2460107639
 H         -5.4459508385       -0.1166752942       -0.3287418711
 H         -2.8629671092        2.9823926303        0.2593122554
 H         -4.3016820288        3.7023463692       -0.4708411313
 H         -3.3382912586        2.2978185554       -2.1103652388
 H         -4.8021095841        1.4755335778       -1.5454433228
 O         -1.6990699778        0.7135635942       -1.4948224077
 C         -0.7372762751       -0.2757229201       -1.3387541256
 O          0.3589066066        0.0104234994       -1.8553663652
 H          2.1472830593       -0.9189380555       -0.4725348469
 C          1.8896696428       -1.2346125745        0.5246561181
 C          0.8078887402       -2.0781590474        0.7366128869
 C          0.4921767647       -2.4492697804        2.0406918635
 C          1.2443219837       -1.9916031539        3.1065303954
 C          2.3161669920       -1.1432995471        2.8942907618
 C          2.6343031519       -0.7596435332        1.5953459377
 N          3.7102880259        0.1053293998        1.3624055165
 S          3.8223158512        1.0804899242        0.0190398827
 O          4.1323702342        0.2933438182       -1.1477500571
 O          4.8314143139        2.0539574821        0.3907734430
 C          2.2744000894        1.9449917802       -0.1875299299
 C          2.0058875556        2.4572767931       -1.4396715111
 C          0.8620681321        3.2139540931       -1.6283667425
 C          0.0045000653        3.4421779713       -0.5651557152
 C          0.2833058643        2.9155235837        0.6853959734
 C          1.4319747238        2.1652701927        0.8823389884
 H          1.6584110665        1.7471646389        1.8501398069
 H         -0.3899232154        3.0841074402        1.5120297412
 H         -0.8883075038        4.0289325937       -0.7166545888
 H          0.6377367082        3.6111912464       -2.6053931353
 H          2.6881184463        2.2389076487       -2.2454413997
 H          4.1251180438        0.5266497618        2.1796445353
 H          2.9030357037       -0.7781764714        3.7232692967
 H          0.9908912263       -2.2912722873        4.1120501236
 H         -0.3607333069       -3.0908414097        2.2094922573
 C         -0.0717828759       -2.5367599992       -0.4009613377
 H         -0.6557954835       -3.3985272150       -0.0499182755
 C          0.7077358646       -2.9560868975       -1.6282765283
 C          1.4207159321       -4.2741695566       -1.6148053969
 C          0.1992483304       -4.0911512558       -2.4635391903
 H          0.3173998818       -4.0346289582       -3.5352867700
 H         -0.7157739229       -4.5725753212       -2.1501683708
 H          2.3818949313       -4.3432264415       -2.1009012617
 H          1.3331386184       -4.8803210841       -0.7256063897
 H          1.1814238322       -2.1344566673       -2.1497989403
 O         -2.7632119315       -2.6969879558        0.4386222690
