  62
        -98.93891360
 C         -2.4639931898       -0.9589552208        0.3652096505
 C         -2.8268129400        0.2055402896        1.0938949599
 C         -4.2084956000        0.6708608694        0.9400736094
 C         -5.0591172598       -0.0211130611        0.1609813097
 C         -6.5118075898        0.2958431287       -0.0693400107
 C         -6.7583787498        1.3445346481       -1.1623606512
 C         -6.3868543099        2.7782575983       -0.7822864119
 H         -6.8097428199        3.4326141479       -1.5471141323
 H         -6.8607329701        3.0362130088        0.1652735279
 C         -4.8763798600        3.0372174085       -0.6919611818
 H         -4.3369877498        2.2354672383       -1.2017908814
 H         -4.6338566800        3.9662604982       -1.2127180323
 C         -4.3380581802        3.1644869793        0.7333197482
 H         -3.2556859202        3.3083846693        0.6792303182
 H         -4.7714312103        4.0455856495        1.2118910077
 C         -4.6084538602        1.9438196397        1.6227978487
 H         -5.6606581702        1.9093138897        1.9049333386
 H         -4.0047449603        2.0385449202        2.5287901988
 H         -6.2075721896        1.0506643777       -2.0587232310
 H         -7.8236424297        1.3193722279       -1.4029382614
 H         -6.9653486700        0.6284311691        0.8647894091
 H         -6.9879244097       -0.6382890415       -0.3747477003
 O         -4.6815918797       -1.1391677414       -0.5090628297
 C         -3.3818981296       -1.6234792413       -0.4491221193
 O         -3.2043577494       -2.6345278516       -1.1573247188
 O         -2.0301423801        0.8221301600        1.8523076797
 C         -1.0355070798       -1.4419495706        0.5351749309
 C         -0.1210424497       -1.0029023711       -0.5839937092
 C         -0.3916206295       -1.3039818718       -1.9146929391
 C          0.4986015706       -0.9387173522       -2.9080377391
 C          1.6830062806       -0.2950213319       -2.5950183493
 C          1.9612634304        0.0115535288       -1.2684631694
 C          1.0521397603       -0.3296918508       -0.2769830194
 H          1.2769582901       -0.0707347203        0.7476109405
 N          3.1496236903        0.6677432790       -0.9105039796
 S          3.8874415501        0.2097496298        0.5399625207
 O          3.8000388502       -1.2229735101        0.7065201515
 O          3.3457204999        1.0103073503        1.6094582803
 C          5.5745618401        0.6909589998        0.2208597107
 C          5.9541115900        1.9993295400        0.4537616301
 C          7.2589086600        2.3767723999        0.1783746501
 C          8.1565418801        1.4459561797       -0.3234058293
 C          7.7612360102        0.1361887296       -0.5507632487
 C          6.4577780702       -0.2480160904       -0.2782220087
 H          6.1085502503       -1.2568831405       -0.4291404582
 H          8.4621747404       -0.5859282405       -0.9373396583
 H          9.1716910001        1.7423152897       -0.5353427093
 H          7.5708269099        3.3931403000        0.3570479796
 H          5.2243929299        2.6843084001        0.8532835997
 H          3.8131677703        0.7259530287       -1.6709477995
 H          2.3843492006       -0.0286774323       -3.3712173793
 H          0.2755476508       -1.1748969827       -3.9377120090
 H         -1.3005950894       -1.8317349620       -2.1590754789
 H         -0.6768888899       -0.9564098501        1.4539906107
 C         -0.9132143797       -2.9450457905        0.7132239817
 C          0.3691230103       -3.5059282701        1.2485256222
 C         -0.8688751898       -3.5249744998        2.0931535620
 H         -1.3580904197       -4.4710154097        2.2704541424
 H         -0.9278370700       -2.8391604294        2.9260589817
 H          0.7278804404       -4.4399238503        0.8435766027
 H          1.1578470802       -2.8111859599        1.5006234019
 H         -1.4281847095       -3.5095995709       -0.0532088981
