  62
        -98.94655095
 C          1.0896341778        1.8079924119       -0.2242027553
 C          1.2240529235        0.6171945994       -0.9821532224
 C          2.5446504463       -0.0320324643       -0.9305380437
 C          3.5283470387        0.5137847616       -0.1950101301
 C          4.9046734987       -0.0618129928       -0.0299681938
 C          4.9848153905       -0.9875118456        1.1910875502
 C          3.8714244807       -2.0336503645        1.2510347795
 H          4.0583455059       -2.6589103701        2.1272145224
 H          2.9115572756       -1.5376059568        1.4161948565
 C          3.7643137462       -2.9217006268        0.0039468877
 H          4.6913923732       -2.8739076641       -0.5695989847
 H          3.6319051314       -3.9572439911        0.3248220944
 C          2.5803148184       -2.5840010926       -0.9042741460
 H          1.6737774568       -2.5183513126       -0.2961820157
 H          2.4481817338       -3.4097656762       -1.6099917246
 C          2.7182965664       -1.2952441501       -1.7257691553
 H          3.6782936171       -1.2938457191       -2.2472918350
 H          1.9194943746       -1.2886950146       -2.4733326741
 H          5.9546517286       -1.4887797197        1.1802246205
 H          4.9281072491       -0.3762388422        2.0947964771
 H          5.1732452186       -0.6094095238       -0.9313707867
 H          5.6061516814        0.7634279025        0.1057497676
 O          3.3655630072        1.6570832787        0.5189325493
 C          2.1493707246        2.3179549062        0.5304203539
 O          2.1381560323        3.3497017938        1.2339396629
 H         -0.6854822109        0.0171970323        0.5097548081
 C         -1.2962124624        0.7024530870        1.0726459261
 C         -1.1564185823        2.0682339566        0.8855703320
 C         -1.9475736454        2.9287963171        1.6393132422
 C         -2.8560076585        2.4280308250        2.5540255440
 C         -3.0000003619        1.0634558754        2.7311972886
 C         -2.2085911260        0.1951084640        1.9870317681
 N         -2.3189849371       -1.1879810870        2.1488517055
 S         -1.6779402211       -2.2867797375        1.0784195152
 O         -2.3058693004       -3.5382324922        1.4555975217
 O         -0.2379049192       -2.2741482252        1.1536537433
 C         -2.2340027614       -1.8363121290       -0.5557614108
 C         -1.4712147361       -2.2429132680       -1.6304213121
 C         -1.8991494007       -1.9391821354       -2.9121938850
 C         -3.0761368530       -1.2328037240       -3.0967669709
 C         -3.8353183790       -0.8364703776       -2.0070488493
 C         -3.4165180129       -1.1442527830       -0.7228909859
 H         -3.9915885787       -0.8395930476        0.1363395821
 H         -4.7496641963       -0.2835016489       -2.1520449008
 H         -3.4011684779       -0.9859082020       -4.0954297798
 H         -1.3044992228       -2.2433422662       -3.7585170357
 H         -0.5503379517       -2.7722552571       -1.4469831217
 H         -3.1076734882       -1.5312245425        2.6734205195
 H         -3.7086071899        0.6709674293        3.4439717937
 H         -3.4613159062        3.1062677222        3.1357327498
 H         -1.8378984064        3.9952936602        1.5139307401
 C         -0.1973558503        2.6109849288       -0.1484106055
 H          0.0985241571        3.6211004679        0.1680133144
 C         -0.9165950508        2.7157111758       -1.4820507460
 C         -1.7560146889        3.9193202976       -1.7810194908
 C         -0.4520753727        3.7191630164       -2.4923879453
 H         -0.4633425220        3.4411162128       -3.5352545077
 H          0.3805549950        4.3517006126       -2.2193484050
 H         -2.6706005444        3.7806237859       -2.3363035710
 H         -1.8067832517        4.6987849339       -1.0363179510
 H         -1.2561840383        1.7571748795       -1.8531133974
 O          0.3088429267        0.1059335827       -1.6786485420
