  62
        -98.93737413
 C         -0.7040893393       -1.2897542044        0.2294574240
 C         -1.5491284885       -0.6676793202        1.1819813601
 C         -2.5260229824        0.2954766786        0.6555135437
 C         -2.5325612772        0.5805236588       -0.6583572148
 C         -3.4695980428        1.5176803022       -1.3743985273
 C         -4.9585614375        1.1197868604       -1.3677404284
 C         -5.7800793457        1.7614875132       -0.2423869735
 H         -5.2804407934        2.6750161121        0.0822246659
 H         -6.7507010854        2.0614792447       -0.6425339922
 C         -6.0559097814        0.8719085059        0.9737580343
 H         -6.8577688457        0.1713364745        0.7295998374
 H         -6.4153800179        1.5123923210        1.7821472189
 C         -4.8713633853        0.0505427240        1.4837987509
 H         -5.1395849469       -0.3689850689        2.4556063880
 H         -4.7008785805       -0.8000066548        0.8190498362
 C         -3.5506493538        0.8351446530        1.6103125945
 H         -3.7168631869        1.8973881566        1.4378890019
 H         -3.1387630212        0.7093894151        2.6139203316
 H         -5.0458784106        0.0342861515       -1.3313650683
 H         -5.3771265522        1.4451877547       -2.3213512754
 H         -3.3653819556        2.5197577972       -0.9536120773
 H         -3.1161040810        1.5473699298       -2.4064324786
 O         -1.6256679558        0.0485385129       -1.5197896385
 C         -0.6915618409       -0.8935438698       -1.1089263492
 O          0.0669169881       -1.2748882433       -2.0175397526
 H          1.8398366252       -0.3311311914        1.2346338050
 C          2.3048549623       -1.0229805471        0.5465817708
 C          1.6213435406       -2.1718798563        0.1675165610
 C          2.2417042912       -3.0613709196       -0.6998335959
 C          3.5110765584       -2.7960113579       -1.1815814530
 C          4.1824840803       -1.6443487267       -0.8160013149
 C          3.5714046393       -0.7501685251        0.0564598895
 N          4.2339451197        0.4184115280        0.4548808562
 S          3.4046838223        1.7560607013        0.9847255059
 O          4.3555933389        2.8393892132        0.8429414283
 O          2.9081152995        1.5406049428        2.3215553909
 C          2.0434095289        2.0338239315       -0.1349494058
 C          2.2210975720        1.8635034755       -1.4928757495
 C          1.1775169280        2.1750438201       -2.3488871174
 C         -0.0131274963        2.6663930808       -1.8386057646
 C         -0.1771314611        2.8293820519       -0.4723251515
 C          0.8568858102        2.5041918564        0.3892205417
 H          0.7633681529        2.6018881112        1.4595677487
 H         -1.1044196412        3.2051564325       -0.0706077288
 H         -0.8193336013        2.9179442221       -2.5090718498
 H          1.2953248748        2.0315259894       -3.4107182950
 H          3.1579371425        1.4883894535       -1.8712437613
 H          5.0730762258        0.6484843252       -0.0550351410
 H          5.1693022352       -1.4341524374       -1.1988467230
 H          3.9806199571       -3.4914739438       -1.8604810913
 H          1.7217590526       -3.9493469751       -1.0186551369
 C          0.2360486304       -2.3742355480        0.7231603008
 H          0.2859747048       -2.2186533526        1.8141871549
 C         -0.2944028513       -3.7850889420        0.5081293402
 C         -1.7665090294       -4.0658335492        0.5219921009
 C         -0.9910451843       -4.1978594054       -0.7525904916
 H         -0.8072959764       -5.1900021190       -1.1382541145
 H         -1.1249355882       -3.4497799570       -1.5183244189
 H         -2.1132777999       -4.9634391596        1.0116933243
 H         -2.4350048212       -3.2241354464        0.6312135230
 H          0.3390874454       -4.5295509057        0.9807762542
 O         -1.4977521068       -0.9129867837        2.4174490384
