  62
        -98.93166908
 C         -1.9147727106       -1.2292254656        0.7345300813
 C         -1.9514005651        0.1689031070        0.9582869926
 C         -3.1771966548        0.8931090816        0.5710002707
 C         -4.1948483663        0.1930039035        0.0372773933
 C         -5.5299278673        0.6956254149       -0.4462647015
 C         -5.4436273323        1.4117278058       -1.8025189700
 C         -4.2911438739        2.4039357107       -1.9294312318
 H         -3.3476556235        1.8786926968       -1.7698142115
 H         -4.2844637314        2.7748300683       -2.9578856400
 C         -4.3677725869        3.6111012211       -0.9973199813
 H         -3.5554455947        4.2868899257       -1.2771239657
 H         -5.3094834290        4.1369965424       -1.1692078445
 C         -4.2398128998        3.3120066637        0.4986919928
 H         -5.1735934656        2.9362636459        0.9084315283
 H         -4.0399538145        4.2616619355        1.0033770457
 C         -3.0936639159        2.3727895955        0.8594263035
 H         -2.9010946558        2.4506232206        1.9359547369
 H         -2.1764159216        2.7272174468        0.3749462099
 H         -6.3904177290        1.9242547969       -1.9820523730
 H         -5.3185870156        0.6532116793       -2.5793192431
 H         -6.1710908236       -0.1818307877       -0.5574644584
 H         -5.9802935172        1.3410409031        0.3022083719
 O         -4.1140617265       -1.1510478595       -0.1697572998
 C         -2.9860901585       -1.8970686971        0.1411832731
 O         -3.0878670732       -3.1006750692       -0.1560027279
 O         -0.9886060676        0.7993510236        1.4710063657
 C         -0.6348029335       -1.9394959746        1.1371462958
 C          0.3922114767       -1.8411065517        0.0369794215
 C          0.0444609500       -2.0698828476       -1.2902581200
 C          0.9872720638       -1.9526108989       -2.2957804833
 C          2.2954245151       -1.6119350234       -1.9987179765
 C          2.6541023764       -1.3828339434       -0.6773366759
 C          1.7042405976       -1.4979719397        0.3311829222
 H          1.9856051130       -1.2985128030        1.3564653791
 N          3.9904888960       -1.0370509504       -0.3839538200
 S          4.5299655387        0.4714398698       -0.8803531475
 O          4.1276247076        0.6802661351       -2.2467027705
 O          5.9491668791        0.4924015947       -0.6127413239
 C          3.7025571929        1.6196775688        0.2053511241
 C          4.4222559047        2.2345602346        1.2110397979
 C          3.7570093018        3.0655777361        2.0978789419
 C          2.3872726985        3.2465151623        1.9782764210
 C          1.6771791508        2.6167712433        0.9673715232
 C          2.3403390571        1.7996731658        0.0658003965
 H          1.8140696870        1.2987999168       -0.7314175542
 H          0.6067886274        2.7231973354        0.8971879760
 H          1.8645461363        3.8783668210        2.6789580785
 H          4.3044643034        3.5596353031        2.8845574260
 H          5.4829433746        2.0519356160        1.2736732213
 H          4.2357583401       -1.1675816510        0.5880171821
 H          3.0369287645       -1.5006809917       -2.7724433633
 H          0.7015528426       -2.1314078247       -3.3215402302
 H         -0.9745274204       -2.3419159954       -1.5248240975
 H         -0.2478812510       -1.3640925734        1.9937432831
 C         -0.8495428123       -3.3688501687        1.6113848219
 C         -0.4818711562       -4.5694194398        0.7980903085
 C          0.3221335051       -4.2163206692        2.0111033286
 H          0.2348238386       -4.8365360184        2.8901824725
 H          1.3102729778       -3.8121329685        1.8506638265
 H         -1.1439766743       -5.4205830844        0.8361349155
 H         -0.0383148869       -4.4110851328       -0.1724493453
 H         -1.7440257264       -3.4604413312        2.2186810269
