  62
        -98.94291598
 C          2.6454783836        1.1854093896        0.2544854967
 C          2.7740529356        0.3295998416       -0.8662011979
 C          3.7786696068       -0.7388628351       -0.7489832255
 C          4.5142337350       -0.8428879448        0.3719181026
 C          5.5228457175       -1.9199892926        0.6438895113
 C          4.8778185251       -3.1175576504        1.3557942831
 C          3.5914982550       -3.6113575010        0.6935278548
 H          3.2441938586       -4.4760695341        1.2630487450
 H          2.8242719678       -2.8386843333        0.7835585029
 C          3.7468026641       -4.0011314222       -0.7831472630
 H          4.8003251982       -4.1600578670       -1.0159038125
 H          3.2311841629       -4.9489250917       -0.9515165760
 C          3.1573768297       -2.9923917358       -1.7707926137
 H          2.1281183030       -2.7592850467       -1.4855736101
 H          3.1247299893       -3.4617998564       -2.7577719393
 C          3.9280558672       -1.6740504316       -1.9163782116
 H          4.9819114959       -1.8831182668       -2.1102468373
 H          3.5189074004       -1.1436243526       -2.7812767930
 H          5.6057191345       -3.9300843259        1.3919313019
 H          4.6433714689       -2.8248516204        2.3817977723
 H          5.9689477063       -2.2393048348       -0.2959528764
 H          6.3035553934       -1.5056499292        1.2839232829
 O          4.3819893498        0.0096421191        1.4186925591
 C          3.4490040726        1.0296248406        1.3902049089
 O          3.4326835371        1.7319181630        2.4205326693
 H          0.0827252791        0.6879277889       -1.1450260062
 C         -0.4116151035        1.0108653308       -0.2406716550
 C          0.2584047303        1.8540303411        0.6341789502
 C         -0.3900793713        2.2560244031        1.7960758198
 C         -1.6742056860        1.8204040949        2.0724490878
 C         -2.3348741919        0.9721582608        1.2018463105
 C         -1.6956762722        0.5640716508        0.0384517697
 N         -2.3411029915       -0.3210068136       -0.8411613642
 S         -3.9226364327        0.0000500210       -1.2963210424
 O         -4.0995682762       -0.6794661999       -2.5610096938
 O         -4.2027395848        1.4173023286       -1.2841716906
 C         -4.8992129246       -0.8253620567       -0.0567546765
 C         -5.8790358642       -0.1302756815        0.6245259107
 C         -6.6369687653       -0.7976196357        1.5743364866
 C         -6.4036136101       -2.1413085357        1.8235466361
 C         -5.4170452259       -2.8256682552        1.1290840078
 C         -4.6568024141       -2.1647129382        0.1776643326
 H         -3.8831871587       -2.6605163166       -0.3848423251
 H         -5.2381394286       -3.8705067462        1.3258807000
 H         -6.9938271643       -2.6587704288        2.5632823301
 H         -7.4044618656       -0.2674232369        2.1149941259
 H         -6.0211652506        0.9151347126        0.4012227237
 H         -1.7776314558       -0.5735001008       -1.6404420369
 H         -3.3340169324        0.6278440942        1.4135684019
 H         -2.1655493507        2.1417058681        2.9781659422
 H          0.1243884591        2.9063423452        2.4886324988
 C          1.6547914082        2.3384737056        0.3213190835
 H          1.9871284528        2.9611756270        1.1625329684
 C          1.6575220008        3.1936824791       -0.9318558220
 C          1.1713783808        4.6077254832       -0.8468842797
 C          2.6305010270        4.3266773619       -1.0433999749
 H          3.0732306225        4.5324728776       -2.0063952191
 H          3.2988334315        4.4944313529       -0.2111089026
 H          0.6071073763        5.0086062741       -1.6750426274
 H          0.8509853153        4.9696262340        0.1184122756
 H          1.4370878854        2.6389037746       -1.8342617880
 O          2.0954608961        0.4259712361       -1.9253128919
