  62
        -98.94074040
 C          2.0010398994        1.3365667911        0.3680803490
 C          2.4913477791        0.6349956107       -0.7612964308
 C          3.6973552490       -0.1788256794       -0.5351494608
 C          4.2474142792       -0.2273237291        0.6908555491
 C          5.4398951092       -1.0571025191        1.0669970992
 C          5.0139396391       -2.4420324789        1.5741824697
 C          4.0106301189       -3.1519178191        0.6647099501
 H          3.8061524788       -4.1297537989        1.1064895005
 H          3.0694324189       -2.5967217589        0.6669674501
 C          4.4846480086       -3.3348419096       -0.7838932499
 H          4.2528658784       -4.3537069697       -1.1014223795
 H          5.5677039386       -3.2177373598       -0.8364999901
 C          3.8235913485       -2.3933535199       -1.7926514001
 H          4.0628501382       -2.7511189502       -2.7976352000
 H          2.7368462885       -2.4392183797       -1.6811847998
 C          4.2544274487       -0.9231562199       -1.7157144307
 H          5.3441648187       -0.8572889000       -1.7354911309
 H          3.8619723386       -0.4172659101       -2.6027360707
 H          4.5585609094       -2.3251449385        2.5604411398
 H          5.9071553391       -3.0595250589        1.6841212897
 H          6.0922528090       -1.1600397295        0.2021517491
 H          5.9822833694       -0.5407145689        1.8608673289
 O          3.7360210795        0.4417746714        1.7558046590
 C          2.5945230296        1.2167079615        1.6270549289
 O          2.2058135299        1.7342861119        2.6935334789
 H         -0.2290583607       -0.1779285384        0.9183424000
 C         -0.7207470408        0.2143802513        0.0356707300
 C         -0.3334467308        1.4562062011       -0.4554582005
 C         -0.9747149409        1.9503162708       -1.5827048106
 C         -1.9562864312        1.2050261707       -2.2136998801
 C         -2.3235672412       -0.0382119791       -1.7348727596
 C         -1.6966997411       -0.5368411088       -0.5993072196
 N         -2.0715535811       -1.7950733886       -0.0968127091
 S         -3.7062415111       -2.1347109683        0.0172510613
 O         -3.8182146810       -3.0970749179        1.0911568517
 O         -4.2045884014       -2.5638223787       -1.2655363984
 C         -4.4710992308       -0.5898642781        0.4770868810
 C         -4.1044140505       -0.0177605877        1.6792658407
 C         -4.6561104603        1.2011386725        2.0377702204
 C         -5.5600040604        1.8249242023        1.1911169504
 C         -5.9221939107        1.2351480820       -0.0097177494
 C         -5.3723072809        0.0163648918       -0.3739107891
 H         -5.6245299312       -0.4762068285       -1.2987291188
 H         -6.6270353908        1.7213774718       -0.6645639594
 H         -5.9843196602        2.7759568425        1.4716235501
 H         -4.3757569501        1.6606493428        2.9721223402
 H         -3.4028398905       -0.5309957076        2.3176480707
 H         -1.5816041110       -2.0662344583        0.7424792209
 H         -3.0706581614       -0.6385680792       -2.2281437793
 H         -2.4367584013        1.5955631805       -3.0976375002
 H         -0.6872901009        2.9067101506       -1.9864162210
 C          0.7502485495        2.1960955512        0.2908212190
 H          0.4190792197        2.3039969716        1.3371808490
 C          0.9904180195        3.6053678110       -0.2299976715
 C          2.3275264796        4.2667453109       -0.0833483620
 C          1.8266603793        3.8827283605       -1.4415812018
 H          1.5126061893        4.6702532303       -2.1111326520
 H          2.2782205291        3.0400783403       -1.9400070516
 H          3.1295450097        3.6870440710        0.3506932680
 H          2.3549884598        5.3132806910        0.1808583376
 H          0.1246905096        4.2429517312       -0.0800229516
 O          1.9620647188        0.6748777903       -1.9009110807
