  62
        -98.93048771
 C          1.8039146506        1.2228126504       -0.1465818843
 C          3.1847530399        1.3965114206        0.1107584595
 C          4.0852537699        0.3254365031       -0.3480214788
 C          3.5595373171       -0.7383485825       -0.9799560481
 C          4.2829779850       -1.9578740307       -1.4809125846
 C          4.2719842343       -3.0725767000       -0.4208811698
 C          5.4221290550       -3.0172257015        0.5837006660
 H          5.2267946217       -3.7771770992        1.3437297872
 H          6.3520188062       -3.2895581629        0.0800674733
 C          5.6192909705       -1.6673145547        1.2782187827
 H          4.6498568912       -1.2565487516        1.5661142951
 H          6.1820096083       -1.8420930581        2.1972867266
 C          6.3811286652       -0.6503066861        0.4155328899
 H          6.8234084196       -1.1651350673       -0.4371583217
 H          7.2117381627       -0.2370826012        0.9916427122
 C          5.5490208677        0.5427672553       -0.0761239104
 H          5.5751316589        1.3386164639        0.6750340851
 H          6.0132933329        0.9536113859       -0.9791492184
 H          3.3176233375       -3.0213180352        0.1092097645
 H          4.3132086672       -4.0384244615       -0.9283878766
 H          3.7332217420       -2.3058522427       -2.3579271962
 H          5.2968104238       -1.7091843406       -1.7801138382
 O          2.2244271248       -0.8665271461       -1.2082756233
 C          1.3138464606        0.1011846776       -0.8127795384
 O          0.1351886251       -0.1655374519       -1.1049297864
 O          3.6463300334        2.4062651390        0.7093993159
 C          0.8569775546        2.3282561858        0.3036482608
 C         -0.3050968510        1.7375180866        1.0607129072
 C         -0.0226789735        1.2793186948        2.3496084511
 C         -0.9976381653        0.7078121934        3.1416143705
 C         -2.2938135837        0.5845437213        2.6724016099
 C         -2.5917914868        1.0331839935        1.3929794073
 C         -1.6024997418        1.5960785355        0.5939790974
 H         -1.8834730122        1.8847286565       -0.4009371886
 N         -3.9117878829        0.9713599784        0.9094207222
 S         -4.2954062398        0.2468877866       -0.5490695681
 O         -3.5478288939        0.8534327514       -1.6180118500
 O         -5.7363011229        0.3586436079       -0.6337075693
 C         -3.8594280145       -1.4688059828       -0.3304776840
 C         -4.8609234745       -2.3621348732       -0.0002231890
 C         -4.5303838295       -3.6867807992        0.2325917782
 C         -3.2071275711       -4.0918395762        0.1405334054
 C         -2.2151832190       -3.1809107901       -0.1876211959
 C         -2.5371646842       -1.8526818389       -0.4257476891
 H         -1.7798031117       -1.1302876481       -0.6873314176
 H         -1.1842647028       -3.4895646808       -0.2619208630
 H         -2.9464739963       -5.1225135975        0.3235954688
 H         -5.3014152723       -4.3966291311        0.4856505444
 H         -5.8755426576       -2.0018126177        0.0548441699
 H         -4.5833493078        0.6784551984        1.6053787749
 H         -3.0656991667        0.1504691402        3.2898073922
 H         -0.7498348060        0.3593009886        4.1328056263
 H          0.9878125243        1.3768339881        2.7233065020
 H          1.4462603375        2.8976398652        1.0420191240
 C          0.6406920396        3.2987000352       -0.8493919449
 C         -0.2437613676        3.0814436538       -2.0380451754
 C         -0.5671058080        4.1625232715       -1.0479236649
 H         -0.4104142923        5.1879880303       -1.3490949138
 H         -1.4127999403        4.0258317287       -0.3932366955
 H          0.1404434300        3.3765502770       -3.0049018467
 H         -0.8562449074        2.1948338053       -2.0847028445
 H          1.5925814430        3.7746308914       -1.0784406630
