  62
        -98.94737238
 C         -1.7914379612       -1.1579555697       -0.4457807593
 C         -1.2567687710       -1.8464395604        0.6730207601
 C         -0.1361127217       -2.7610222510        0.3875573591
 C          0.3298527775       -2.8769073308       -0.8679192013
 C          1.4994820267       -3.7200555414       -1.2834274123
 C          2.8140935872       -2.9301215522       -1.2295630729
 C          3.0526553385       -2.2023402228        0.0936607273
 H          4.0383001687       -1.7343677734        0.0353825168
 H          2.3278830890       -1.3931295524        0.2053673680
 C          2.9836357287       -3.0972060432        1.3383701570
 H          3.1009402779       -4.1446217632        1.0554673065
 H          3.8158749893       -2.8419462839        1.9977990866
 C          1.7023919893       -2.9273684427        2.1576473078
 H          1.5270701201       -1.8637154027        2.3400241983
 H          1.8531574397       -3.4051867032        3.1300700776
 C          0.4329130386       -3.5329348618        1.5443086784
 H          0.6221206378       -4.5700404318        1.2561097679
 H         -0.3411764309       -3.5269145416        2.3176230489
 H          3.6366666967       -3.6235799926       -1.4144554736
 H          2.8080280771       -2.1865986219       -2.0298043326
 H          1.5607914266       -4.5906792016       -0.6332450127
 H          1.3311105959       -4.0548787109       -2.3085884723
 O         -0.2049757428       -2.2000883601       -1.9160128907
 C         -1.2654107022       -1.3293299396       -1.7301144797
 O         -1.6521698825       -0.7708828690       -2.7762516793
 H         -0.9224519891        0.6639411591        1.3115694108
 C         -1.3002712490        1.4747103396        0.7078727813
 C         -2.3406533796        1.2543830505       -0.1828781281
 C         -2.8263737395        2.3279027011       -0.9202095174
 C         -2.2736965486        3.5876157907       -0.7768984673
 C         -1.2039563280        3.7922734997        0.0759704121
 C         -0.7091330381        2.7254678992        0.8170224414
 N          0.3994681225        2.8910496082        1.6675389908
 S          1.6836439018        1.8237009475        1.5311943396
 O          1.3065492413        0.5235586375        2.0158586793
 O          2.7688209626        2.4783172766        2.2290293591
 C          2.0456249706        1.7594095779       -0.2136909207
 C          1.3456803896        0.8810496086       -1.0155843305
 C          1.5859338288        0.8755655490       -2.3802036907
 C          2.5252757689        1.7421679986       -2.9171200210
 C          3.2265267200        2.6151709979       -2.0984428911
 C          2.9817890708        2.6310483875       -0.7349158209
 H          3.5069451116        3.2892049570       -0.0617435910
 H          3.9588642001        3.2845250776       -2.5202068413
 H          2.7098451183        1.7336167689       -3.9797676711
 H          1.0251039380        0.1994744295       -3.0077370406
 H          0.6214782595        0.2149005789       -0.5731566203
 H          0.7454282131        3.8395174780        1.7091841509
 H         -0.7513024873        4.7678574994        0.1676129622
 H         -2.6629340185        4.4137541511       -1.3517542668
 H         -3.6320067200        2.1663746618       -1.6203385570
 C         -2.9130302906       -0.1336671791       -0.3639628782
 H         -3.4121629812       -0.1562608384       -1.3433491279
 C         -3.9512682701       -0.4166537788        0.7028880823
 C         -5.3514557499        0.0801661821        0.5099718934
 C         -5.0559541808       -1.3860271781        0.4144142426
 H         -5.3860307207       -2.0379941482        1.2088707026
 H         -5.0720191917       -1.8473617977       -0.5625380075
 H         -5.8905194392        0.4409001021        1.3723318938
 H         -5.5779769502        0.6089470425       -0.4033041163
 H         -3.5477940095       -0.4098295595        1.7067928620
 O         -1.6757964201       -1.7285891406        1.8540505704
