  62
        -98.94717605
 C          1.6067582942        1.5670437825       -0.2446767735
 C          2.7666646407        1.2285374244        0.4991280387
 C          3.5523642768        0.0998742619       -0.0093692378
 C          3.1620521069       -0.5332142450       -1.1303006119
 C          3.8728425105       -1.6834525744       -1.7911071056
 C          3.5311589001       -3.0599307297       -1.2041033524
 C          4.1034509047       -3.3362088673        0.1865355932
 H          3.9617346703       -4.4003965220        0.3854768351
 H          5.1777061503       -3.1490203134        0.1792778425
 C          3.4460436268       -2.5288492099        1.3149545011
 H          2.4946038711       -2.1189351888        0.9681306351
 H          3.2230294293       -3.1904404505        2.1548306356
 C          4.3062033088       -1.3867424267        1.8562724998
 H          3.7344044532       -0.8621614627        2.6259180736
 H          5.2056772102       -1.7933907742        2.3239019203
 C          4.7286998972       -0.3592535342        0.7975392470
 H          5.4964692097       -0.7802566064        0.1486920546
 H          5.1428703164        0.5124303707        1.3100174295
 H          2.4453304504       -3.1708325495       -1.1789593741
 H          3.9252016802       -3.8121958024       -1.8914569442
 H          3.5720627456       -1.6733844894       -2.8412184047
 H          4.9501744384       -1.5231471879       -1.7391809221
 O          2.0532681996       -0.1676257342       -1.8252419635
 C          1.2343867847        0.8673438780       -1.3920891968
 O          0.2386896071        1.0527465801       -2.1180514819
 O          3.1278727023        1.8443268941        1.5360994442
 C          0.7262993186        2.6861477250        0.2898266937
 C         -0.5222854600        2.0391085452        0.8346922151
 C         -0.5176155724        1.5173214592        2.1255146325
 C         -1.6092596177        0.8219557714        2.6115684672
 C         -2.7189337037        0.6095405168        1.8117227311
 C         -2.7254123288        1.1152396481        0.5187962583
 C         -1.6450531152        1.8459979517        0.0446841521
 H         -1.6620289114        2.2219748270       -0.9656932541
 N         -3.8209123431        0.8425064941       -0.3228934321
 S         -4.2920567572       -0.7636376292       -0.3979253133
 O         -4.8190636862       -0.9524666640       -1.7316553546
 O         -5.2140062936       -1.0381937222        0.6774881957
 C         -2.8071483206       -1.7296380451       -0.1635258275
 C         -1.7261986559       -1.5035067438       -0.9917826674
 C         -0.5722672736       -2.2466322748       -0.8032846394
 C         -0.5158672824       -3.1987908473        0.2021900858
 C         -1.6120700772       -3.4175499551        1.0222038124
 C         -2.7683504486       -2.6766827642        0.8402742929
 H         -3.6408281164       -2.8093275970        1.4592823555
 H         -1.5661360476       -4.1592185724        1.8032067675
 H          0.3868490003       -3.7719392792        0.3485699965
 H          0.2767642305       -2.0594405227       -1.4425875997
 H         -1.7707243033       -0.7501920286       -1.7625898605
 H         -3.7084050293        1.2192237328       -1.2535507887
 H         -3.5727458724        0.0527844599        2.1629883289
 H         -1.5932732569        0.4298865710        3.6169214877
 H          0.3630992385        1.6500824034        2.7378226199
 H          1.2845758500        3.1202148857        1.1296227131
 C          0.4656745740        3.7696903106       -0.7341905338
 C         -0.1118700412        5.0766889750       -0.2821598025
 C          1.3165585067        5.0027804524       -0.7285280661
 H          1.5856438450        5.4465342296       -1.6754028627
 H          2.0907373540        5.0734880008        0.0213173201
 H         -0.8258710297        5.5745722418       -0.9203254757
 H         -0.3081802698        5.1951559217        0.7727200251
 H          0.1605393953        3.3894809364       -1.7011215607
