  62
        -98.93329320
 C         -2.6686593414       -1.1248995541       -0.2045135838
 C         -2.4040069739        0.0506154612       -0.9444611688
 C         -3.3001551473        1.1981816093       -0.7051252258
 C         -4.2975046252        1.0932304943        0.1916068766
 C         -5.3670858403        2.0779879679        0.6150511062
 C         -5.2363482749        3.5641609805        0.2903819918
 C         -4.0843564207        4.2777012959        0.9968796984
 H         -4.0373864644        5.3020122781        0.6206407084
 H         -4.3078835087        4.3259815051        2.0655923625
 C         -2.7108249762        3.6290060891        0.8427193411
 H         -1.9879633440        4.2461538452        1.3831599466
 H         -2.7124356394        2.6466973585        1.3201307023
 C         -2.2135974732        3.4821380618       -0.5941886666
 H         -1.1686126064        3.1637550841       -0.5479092824
 H         -2.2465225683        4.4512079344       -1.0957505101
 C         -2.9714887566        2.4567475421       -1.4558642214
 H         -3.8700817759        2.8887817682       -1.8891570975
 H         -2.3181073899        2.1616463845       -2.2818156847
 H         -5.1728000183        3.7119478777       -0.7836741265
 H         -6.1665289134        4.0353889997        0.6195254383
 H         -6.3015329273        1.7099322896        0.1769812728
 H         -5.4668765553        1.9562656727        1.6983055018
 O         -4.5228666684       -0.0661538348        0.8757923717
 C         -3.7290149946       -1.1824635572        0.7048218088
 O         -4.0651078719       -2.1574620769        1.4062938320
 H          0.2188008224       -0.6849519706       -0.7148966991
 C          0.4038001866       -1.3400752520        0.1237721887
 C         -0.5570228174       -2.2787096748        0.4715079179
 C         -0.3103023404       -3.1083355128        1.5587728555
 C          0.8666078936       -2.9936894488        2.2781033177
 C          1.8158067019       -2.0466525190        1.9371497501
 C          1.5781669441       -1.2117904994        0.8526940190
 N          2.5067588753       -0.2048366067        0.5096972556
 S          4.1059338815       -0.6544176923        0.2112419482
 O          4.1832282343       -1.5033920473       -0.9591481890
 O          4.6676357196       -1.1981820622        1.4213327483
 C          4.8270014822        0.9374638927       -0.1315068218
 C          5.0967816289        1.7777254103        0.9316878855
 C          5.6310433936        3.0302746409        0.6760469272
 C          5.8844420508        3.4196589383       -0.6310249555
 C          5.6092583677        2.5647421846       -1.6873865353
 C          5.0732577071        1.3107968034       -1.4383573529
 H          4.8492312737        0.6116292145       -2.2281683253
 H          5.8087893884        2.8694207369       -2.7021985077
 H          6.3007859519        4.3950342158       -0.8276454726
 H          5.8479555924        3.6977457653        1.4944056825
 H          4.8906271563        1.4302314489        1.9304242774
 H          2.1716153399        0.3308955288       -0.2816476396
 H          2.7363621993       -1.9530993922        2.4892371283
 H          1.0455765411       -3.6456580056        3.1200015114
 H         -1.0538154212       -3.8381219498        1.8457466181
 C         -1.8406583770       -2.3963494666       -0.3167606897
 H         -2.4471002460       -3.1834294864        0.1510245270
 C         -1.5622359684       -2.8001821889       -1.7520176085
 C         -1.2236839958       -4.2281427464       -2.0514536688
 C         -2.5476802460       -3.6666721437       -2.4738096326
 H         -2.7223002038       -3.4844664289       -3.5235108075
 H         -3.4293688610       -3.9779083530       -1.9322407326
 H         -0.4843270138       -4.4333847549       -2.8105197891
 H         -1.2080319591       -4.9227128907       -1.2250254089
 H         -1.0616027339       -2.0330987287       -2.3276054149
 O         -1.4684384566        0.1699324447       -1.7818106176
