  62
        -98.94892771
 C          2.2359206197        0.8489644388        0.0796492809
 C          1.5869008554        0.1146274134       -0.9416990689
 C          1.9841270647       -1.2931103042       -1.0737327505
 C          2.8855904977       -1.8053232502       -0.2169251416
 C          3.3876233316       -3.2198897733       -0.2400220121
 C          2.5577608375       -4.1403436768        0.6638687675
 C          1.0487249614       -4.0341100824        0.4432414456
 H          0.5726090992       -4.7710247111        1.0949424283
 H          0.6982256682       -3.0525022170        0.7711413201
 C          0.5965238126       -4.2660066722       -1.0051747651
 H         -0.2832725007       -4.9129468505       -0.9935615791
 H          1.3770529787       -4.7866141792       -1.5624385987
 C          0.1989797148       -2.9873258194       -1.7452385889
 H         -0.4696041173       -2.4031709436       -1.1076772042
 H         -0.3582279625       -3.2688690323       -2.6430493629
 C          1.3597463819       -2.0862879746       -2.1868619947
 H          2.1138754043       -2.6837669279       -2.7045753405
 H          0.9610367695       -1.3499094137       -2.8908173289
 H          2.8798232973       -5.1697328057        0.4923782546
 H          2.7687299297       -3.8877979636        1.7058248108
 H          3.3643182360       -3.5862429775       -1.2647846554
 H          4.4211063155       -3.2191237288        0.1121305273
 O          3.4409847773       -1.0850704144        0.7927072558
 C          3.1209029985        0.2503574426        0.9733847415
 O          3.6833854871        0.7888297951        1.9510310002
 H          0.3666674990        0.9554548873        1.9089400185
 C         -0.2161455532        1.6570975163        1.3235696582
 C          0.4314568710        2.4922060833        0.4210692104
 C         -0.3332817811        3.3892561306       -0.3131499845
 C         -1.7115500934        3.4122669037       -0.1816987429
 C         -2.3556359181        2.5305156518        0.6674509340
 C         -1.5952019832        1.6529846578        1.4276070426
 N         -2.2664724275        0.6805079626        2.2298022015
 S         -2.2772882967       -0.8042343555        1.4164560543
 O         -3.0197867606       -1.7124980977        2.2657308787
 O         -0.9348732934       -1.2324182149        1.0869868693
 C         -3.2100373764       -0.4219583601       -0.0453964751
 C         -4.5875528524       -0.5023841885        0.0256953796
 C         -5.3371220957       -0.1593759495       -1.0873561027
 C         -4.6980216633        0.2617316280       -2.2442949785
 C         -3.3150092410        0.3389948839       -2.2967347830
 C         -2.5565079754       -0.0033256320       -1.1874556847
 H         -1.4784970297        0.0587498973       -1.2032979147
 H         -2.8127840090        0.6699771276       -3.1914564166
 H         -5.2807010870        0.5323581380       -3.1107848896
 H         -6.4129810960       -0.2179110917       -1.0490684234
 H         -5.0350065126       -0.8377107489        0.9469225988
 H         -1.8116541977        0.5345721727        3.1222768017
 H         -3.4301671723        2.5066664656        0.7476306066
 H         -2.2919964556        4.1075559623       -0.7679302155
 H          0.1501643797        4.0575958913       -1.0067305104
 C          1.9219450676        2.3251499396        0.2646537588
 H          2.4116766200        2.6282821641        1.2016170850
 C          2.5062348200        3.1279706248       -0.8789334741
 C          2.8998397474        4.5592360926       -0.6735844316
 C          3.9548042811        3.5067514649       -0.8310326798
 H          4.5257681779        3.4780223618       -1.7468366477
 H          4.5162104406        3.2049121512        0.0415090163
 H          2.7512197971        4.9827825778        0.3081246199
 H          2.7509811005        5.2569389601       -1.4836354201
 H          2.0972192361        2.8393716713       -1.8403409261
 O          0.7341690628        0.6164922164       -1.7196818647
