  62
        -98.93712081
 C         -2.5565385771       -0.1483815176       -0.1412281295
 C         -2.2432326289       -1.2516660368       -0.9726315258
 C         -1.6315214220       -2.4233651562       -0.3266824423
 C         -1.4192259150       -2.4049730417        0.9999861478
 C         -0.8688165758       -3.4963112905        1.8850095379
 C          0.3393098413       -4.2892112517        1.3722955764
 C          1.3442255322       -3.4761275018        0.5429399680
 H          1.1376997141       -2.4070557068        0.6326800939
 H          2.3484877646       -3.6446085539        0.9377901212
 C          1.3526082983       -3.8688696148       -0.9361933422
 H          2.2908138441       -3.5281651644       -1.3812482019
 H          1.3235780410       -4.9587202793       -1.0130545476
 C          0.2230494808       -3.2749309550       -1.7759366202
 H          0.3694837661       -2.1935192011       -1.8608998605
 H          0.3007203026       -3.6874219051       -2.7854205114
 C         -1.2003552291       -3.5272858560       -1.2485462021
 H         -1.2778046700       -4.5035360380       -0.7753031284
 H         -1.8865168336       -3.4960181519       -2.0995047580
 H          0.8405611704       -4.6988987157        2.2511008476
 H         -0.0041085481       -5.1375911500        0.7816042341
 H         -0.6040345295       -2.9929336973        2.8180057670
 H         -1.6830809280       -4.1918573028        2.1109576562
 O         -1.7507492973       -1.3305946262        1.7675574889
 C         -2.2412548264       -0.1571798257        1.2185300451
 O         -2.3704646400        0.7655076241        2.0454807580
 O         -2.4658599605       -1.2569504542       -2.2149091680
 C         -3.0076545111        1.1366049364       -0.8200820726
 C         -2.0070234099        2.2044244776       -0.4545904557
 C         -2.3145188228        3.4129100934        0.1528954251
 C         -1.2992722523        4.2736126225        0.5376428942
 C          0.0296418143        3.9381288248        0.3549001065
 C          0.3449814490        2.7339124225       -0.2659600346
 C         -0.6724300547        1.9034370325       -0.6969232516
 H         -0.4198202171        0.9709573602       -1.1818045804
 N          1.6780781659        2.3292017235       -0.4682022966
 S          1.9813112932        0.6668026049       -0.3347261156
 O          1.7281934604        0.0534708636       -1.6150194046
 O          1.2791243475        0.1124334920        0.7995306871
 C          3.7384314993        0.6817667397       -0.0317482196
 C          4.5866622082        0.9396936745       -1.0924238400
 C          5.9524425006        0.9827329208       -0.8624750107
 C          6.4447616234        0.7675084368        0.4164941945
 C          5.5815804293        0.5068845068        1.4699432431
 C          4.2138162542        0.4648048547        1.2471351957
 H          3.5035979760        0.2602665083        2.0325148688
 H          5.9665414660        0.3362028577        2.4623446000
 H          7.5082133223        0.8003720580        0.5929602819
 H          6.6266336216        1.1823498650       -1.6795770652
 H          4.1573967287        1.0896411494       -2.0692136043
 H          2.3359806000        2.8691150214        0.0780711970
 H          0.8163370519        4.5938633166        0.6961136688
 H         -1.5479926006        5.2082974506        1.0173290118
 H         -3.3423321306        3.6656079824        0.3563715135
 H         -2.8938124313        0.9214701607       -1.8967990609
 C         -4.4585555669        1.5348476018       -0.6150776082
 C         -5.5007507678        0.5022133111       -0.3076448748
 C         -5.1315656248        1.5241880791        0.7232793746
 H         -5.8426732782        2.3083727047        0.9393305434
 H         -4.5472096899        1.2138076403        1.5740635442
 H         -6.4619312227        0.5790055421       -0.7934097143
 H         -5.1623117656       -0.5135324332       -0.1605617182
 H         -4.7556327321        2.3253092523       -1.2981893481
