  62
        -98.93746434
 C          1.8317871216        0.7231410727       -0.7417876139
 C          2.1119702685        0.0754982804        0.4834360959
 C          3.5306172107        0.0262384617        0.8834128117
 C          4.4544974819        0.5972756625        0.0911537661
 C          5.9452752520        0.6129579172        0.2878859526
 C          6.6035686592       -0.5589876722       -0.4598429417
 C          6.6811943199       -1.8649330849        0.3300251774
 H          7.0433164301       -2.6364327142       -0.3534539433
 H          7.4217345741       -1.7591179343        1.1256711304
 C          5.3622740342       -2.3356666309        0.9486284502
 H          4.5512543872       -2.2051592444        0.2299739889
 H          5.4496867666       -3.4057002787        1.1468553231
 C          5.0190231121       -1.6142319352        2.2604679411
 H          4.7899341051       -2.3540730000        3.0302073225
 H          5.8973278404       -1.0701386378        2.6074715511
 C          3.8158037576       -0.6618660114        2.1904361083
 H          3.9177227487        0.1001265301        2.9704090458
 H          2.8986909774       -1.2154211528        2.4149402075
 H          6.0455471273       -0.7203438996       -1.3857817051
 H          7.6195730557       -0.2710405444       -0.7375259835
 H          6.3067350747        1.5481998055       -0.1447898130
 H          6.1953935054        0.5961972953        1.3444576691
 O          4.1372184774        1.2212242192       -1.0776363140
 C          2.8311811013        1.2997710501       -1.5236730691
 O          2.6887161570        1.9026529516       -2.6073017014
 O          1.2238747081       -0.4427378935        1.2091637058
 C          0.3999857328        0.8151341225       -1.2355325241
 C         -0.4646370609        1.5135531853       -0.2140363073
 C          0.0076669209        2.6747247843        0.3928433723
 C         -0.7539144982        3.3409255885        1.3323829636
 C         -2.0109375267        2.8743108157        1.6750264715
 C         -2.4985697825        1.7255022108        1.0656235630
 C         -1.7256522002        1.0521258409        0.1286549528
 H         -2.1228444476        0.1646803746       -0.3342966291
 N         -3.7600297324        1.2179072460        1.4043856950
 S         -4.7392214874        0.5192348511        0.2452443351
 O         -4.5982325842        1.1682836047       -1.0373782055
 O         -6.0651862395        0.5510187280        0.8259328785
 C         -4.1998552209       -1.1743231799        0.1411258071
 C         -3.7803632164       -1.8226696401        1.2856191394
 C         -3.4006346015       -3.1525433428        1.1992809409
 C         -3.4538743887       -3.8109118295       -0.0198694185
 C         -3.8840376124       -3.1477811540       -1.1586501502
 C         -4.2614491468       -1.8162895392       -1.0799807554
 H         -4.5911164974       -1.2589207009       -1.9425367308
 H         -3.9249789494       -3.6612994293       -2.1063170370
 H         -3.1565377769       -4.8458126708       -0.0835816350
 H         -3.0608225490       -3.6697918399        2.0821214167
 H         -3.7443821693       -1.2815734345        2.2162769193
 H         -4.2869367451        1.7737061458        2.0616595605
 H         -2.6073954715        3.3938631289        2.4095298627
 H         -0.3694218889        4.2354480752        1.7992043864
 H          0.9874064170        3.0446173248        0.1212616891
 H          0.4279579908        1.4426150015       -2.1391351065
 C         -0.1050170822       -0.5620463346       -1.6142801990
 C         -1.1387940681       -0.7243250495       -2.6864111005
 C          0.2798747144       -1.1312321494       -2.9455409085
 H          0.5110215411       -2.1837176988       -3.0099584542
 H          0.8825569868       -0.5108645043       -3.5933168210
 H         -1.8800609280       -1.5003803625       -2.5696559547
 H         -1.5106969379        0.1698228291       -3.1641867864
 H         -0.1348891185       -1.2395205868       -0.7684009183
