  62
        -98.94443460
 C         -1.9399200958       -0.8573415835        0.0508278547
 C         -2.4078586293        0.4691128018        0.2107671447
 C         -3.8237819754        0.6016302998        0.5788226854
 C         -4.5740838775       -0.4990774247        0.7673172600
 C         -6.0253654490       -0.5250351460        1.1638948821
 C         -6.9964069204       -0.3629125605       -0.0136191600
 C         -7.0689256779        1.0440129986       -0.6083646255
 H         -7.9365715004        1.0674628958       -1.2707507825
 H         -7.2487915396        1.7657427178        0.1890028774
 C         -5.8264204665        1.4583383019       -1.4090758227
 H         -6.1361421876        1.9167553349       -2.3510207720
 H         -5.2426931152        0.5703930519       -1.6627632791
 C         -4.9173400255        2.4596844900       -0.6961930185
 H         -4.0525539549        2.6539610038       -1.3360022343
 H         -5.4498041899        3.4030686096       -0.5556119141
 C         -4.3992223521        1.9827645916        0.6669945392
 H         -3.5984347553        2.6554239669        0.9843629737
 H         -5.1990832771        2.0170135871        1.4064307845
 H         -7.9919222945       -0.6336240072        0.3456004439
 H         -6.7200857588       -1.0746859287       -0.7948842642
 H         -6.2039590905       -1.4986169194        1.6253290923
 H         -6.2170658921        0.2514021065        1.9049688460
 O         -4.0759472056       -1.7572026556        0.6332328122
 C         -2.7596175410       -1.9671560541        0.2558302619
 O         -2.4405294284       -3.1687003826        0.1482869532
 H          1.5558995419        0.7150240821       -0.7696670641
 C          1.4263907772        0.4271093804        0.2594455059
 C          0.4379408082       -0.4707590089        0.6279705303
 C          0.2998926495       -0.7955392193        1.9759037402
 C          1.1164038085       -0.2203123876        2.9289299920
 C          2.0974356260        0.6831889471        2.5577629401
 C          2.2485688597        1.0097977605        1.2162139713
 N          3.2224705086        1.9391476258        0.8180933856
 S          4.1831025730        1.6608856610       -0.5194945457
 O          5.2654337820        2.6111288152       -0.3891191191
 O          3.4048317916        1.7426377294       -1.7282272585
 C          4.7999263764        0.0044066090       -0.2840011563
 C          4.1695097806       -1.0567168199       -0.9008492596
 C          4.6240220414       -2.3419033117       -0.6494342815
 C          5.6933144673       -2.5425885772        0.2094756109
 C          6.3188986535       -1.4649522377        0.8183408764
 C          5.8669876675       -0.1786280890        0.5742493217
 H          6.3321061579        0.6867374314        1.0178909223
 H          7.1536978434       -1.6240897534        1.4817272540
 H          6.0423681256       -3.5447744746        0.4023644291
 H          4.1400568395       -3.1806957384       -1.1240092494
 H          3.3446382666       -0.8620499309       -1.5659075621
 H          3.7666284053        2.3231020203        1.5765953641
 H          2.7306087219        1.1420642895        3.3018646868
 H          0.9907519095       -0.4765018386        3.9701407054
 H         -0.4699261059       -1.4986182788        2.2646502282
 C         -0.5011233364       -1.1107502143       -0.3647510663
 H         -0.3606527373       -2.2004663996       -0.3170778457
 C         -0.2869307691       -0.6551302110       -1.7926577341
 C          0.7250692785       -1.3404010152       -2.6588542551
 C         -0.7383442277       -1.5414312448       -2.9128583820
 H         -1.1809012592       -1.0846941717       -3.7854467898
 H         -1.1782758777       -2.4916469757       -2.6461078378
 H          1.2935263601       -0.7444730423       -3.3579404054
 H          1.2725384219       -2.1647250962       -2.2267871436
 H         -0.4282941338        0.4124547644       -1.9193952377
 O         -1.6870997042        1.4893339808        0.0580584057
