  62
        -98.94476338
 C          1.8625118203        0.6909218102        0.4201574186
 C          2.4933407600        0.1551233398       -0.7289132113
 C          3.5741846801       -0.8053228901       -0.4695677812
 C          3.8676475004       -1.1603719197        0.7943290088
 C          4.9270862905       -2.1421859195        1.2158773789
 C          6.3335964505       -1.5362536194        1.3186212885
 C          7.0044220702       -1.2169628699       -0.0180191718
 H          8.0546885902       -1.0066774098        0.1937188180
 H          6.9721591601       -2.0985547701       -0.6590437815
 C          6.4007371500       -0.0161198601       -0.7596154320
 H          7.2042797300        0.6292376998       -1.1214961624
 H          5.8018251302        0.5774546101       -0.0651202921
 C          5.5379767398       -0.3843462705       -1.9667489218
 H          6.1576291797       -0.8641296808       -2.7275613017
 H          5.1342624797        0.5372541293       -2.3934239120
 C          4.3591971899       -1.3112799704       -1.6417939712
 H          3.6891415797       -1.3315725307       -2.5049466511
 H          4.7170008900       -2.3234494704       -1.4536628310
 H          6.9593926406       -2.2556909193        1.8518392586
 H          6.2797120806       -0.6292616393        1.9251995782
 H          4.9421691804       -2.9851625897        0.5243337592
 H          4.6371072107       -2.5081081592        2.2033326991
 O          3.1945044006       -0.6673436993        1.8685754888
 C          2.1919867905        0.2764850506        1.7100000787
 O          1.6668205107        0.6525004509        2.7787919787
 O          2.1746569298        0.4585604894       -1.9069798814
 C          0.7590436502        1.7234089801        0.2699418785
 C         -0.4025078599        1.1249202498       -0.4865130211
 C         -0.9985073202        1.7264883195       -1.5861918412
 C         -2.0594958303        1.1129857592       -2.2311914808
 C         -2.5554870302       -0.0990250706       -1.7894026403
 C         -1.9794807999       -0.6990401403       -0.6758165302
 C         -0.9167318298       -0.0843211400       -0.0328705806
 H         -0.4659839896       -0.5545624397        0.8329217095
 N         -2.4910906298       -1.9191399101       -0.2029045897
 S         -4.1534365898       -2.0845079501       -0.1034579393
 O         -4.3766626596       -3.0397394698        0.9593006010
 O         -4.6824595700       -2.4483807705       -1.3944151591
 C         -4.7637221297       -0.4736329100        0.3631832603
 C         -4.3063313295        0.0808997504        1.5422547200
 C         -4.7491363395        1.3422112205        1.9055165197
 C         -5.6381933496        2.0238420102        1.0882980196
 C         -6.0928627399        1.4509939198       -0.0890308601
 C         -5.6510516699        0.1906643697       -0.4587812098
 H         -5.9753917301       -0.2907072306       -1.3669241896
 H         -6.7856563000        1.9824952496       -0.7211927901
 H         -5.9781823896        3.0069100703        1.3733327894
 H         -4.3959097393        1.7883125208        2.8214809695
 H         -3.6181324694       -0.4749023794        2.1593364900
 H         -2.0351941496       -2.2617388998        0.6295192303
 H         -3.3693960502       -0.5963716608       -2.2914580800
 H         -2.5044736004        1.5849567089       -3.0935817908
 H         -0.6260932902        2.6703780294       -1.9475764716
 H          0.4154967204        1.9482143604        1.2902351185
 C          1.3041761301        2.9921634299       -0.3506447820
 C          0.6510492101        4.3097013000       -0.0632632223
 C          1.9890173202        3.9909590902        0.5313362675
 H          2.8603444701        4.5030411901        0.1513696772
 H          2.0420882504        3.7668300806        1.5871337476
 H          0.6051631499        5.0458643597       -0.8514077526
 H         -0.2065753198        4.3096470402        0.5921023478
 H          1.7209078999        2.8286060696       -1.3375442921
