  62
        -98.93582133
 C          2.4937280297        1.0073898083        0.5742006540
 C          2.6337831924       -0.2787323166        1.1570800072
 C          3.9296480542       -0.9409205488        0.9758426826
 C          4.9116735873       -0.3074050092        0.3096337570
 C          6.3021013630       -0.8300330509        0.0687293387
 C          6.4191657823       -1.7632816379       -1.1439625295
 C          5.8052162369       -3.1513017291       -0.9579688280
 H          6.1913975312       -3.5987365258       -0.0417073852
 H          6.1476713877       -3.7677598382       -1.7913973368
 C          4.2702796554       -3.1659124733       -0.9324038305
 H          3.9021383567       -3.9711253825       -1.5721753835
 H          3.8884286983       -2.2296225984       -1.3462773014
 C          3.6604230921       -3.3760316489        0.4538014537
 H          3.9232779684       -4.3696167938        0.8239463243
 H          2.5718970540       -3.3285548482        0.3608684533
 C          4.0908124109       -2.3367614133        1.4972398411
 H          5.1226938668       -2.5129743313        1.8008789691
 H          3.4441785696       -2.4409826700        2.3721505282
 H          7.4832361881       -1.8861430905       -1.3581693633
 H          5.9601960336       -1.2746240941       -2.0063227533
 H          6.6583036555       -1.3449209601        0.9614366813
 H          6.9348924679        0.0426716641       -0.1062213716
 O          4.7483439432        0.9325206047       -0.2176778521
 C          3.5378485842        1.6132607750       -0.1273235806
 O          3.5491329035        2.7174515900       -0.6994659913
 O          1.7163942193       -0.8423121747        1.8149813834
 C          1.1520317103        1.6923545987        0.7572019619
 C          0.2125692935        1.3911728548       -0.3834290929
 C          0.6238009062        1.4952514238       -1.7085785434
 C         -0.2586623492        1.2224159011       -2.7376842281
 C         -1.5618296256        0.8444194839       -2.4676413855
 C         -1.9867393843        0.7465639329       -1.1472726976
 C         -1.0962242787        1.0153223293       -0.1164721837
 H         -1.4301054244        0.9109686742        0.9048958731
 N         -3.3218677941        0.4209400154       -0.8559051907
 S         -3.6873871107       -0.4902154152        0.5175910415
 O         -3.5779051455        0.3565375834        1.6784041591
 O         -2.9113766863       -1.7099699893        0.5289120633
 C         -5.4044768730       -0.8472420197        0.1973801152
 C         -5.7658387529       -2.0877343053       -0.2925707489
 C         -7.1025377115       -2.3391292131       -0.5605747606
 C         -8.0489632598       -1.3503277232       -0.3381871034
 C         -7.6709124102       -0.1100915475        0.1549595176
 C         -6.3367464034        0.1472461524        0.4265646009
 H         -5.9975507972        1.0914923355        0.8192861414
 H         -8.4099840155        0.6551724183        0.3291073522
 H         -9.0882714079       -1.5484167150       -0.5476279683
 H         -7.3997508159       -3.3033327115       -0.9404462403
 H         -4.9962842770       -2.8280137165       -0.4423246240
 H         -3.8193799833        0.0700082773       -1.6634420729
 H         -2.2475429551        0.6310856364       -3.2734974478
 H          0.0733455500        1.3029634913       -3.7619304794
 H          1.6376747771        1.7991170120       -1.9211715140
 H          0.7216574697        1.2275336656        1.6598628165
 C          1.2710797527        3.1857649779        1.0325630304
 C          0.8494642105        4.2410013454        0.0592169311
 C          0.0381189715        3.9993831753        1.2943420840
 H          0.0627162901        4.7335974602        2.0852969316
 H         -0.9152144023        3.5043130606        1.1808155544
 H          1.4544489200        5.1323818129       -0.0024552546
 H          0.4433734629        3.9255640990       -0.8887310841
 H          2.1416301839        3.4136406304        1.6395976461
