  62
        -98.93797632
 C          2.0378349381        1.1528843413        0.7791509373
 C          1.9355250177       -0.2279192206        1.0912378374
 C          3.0913187163       -1.0627733601        0.7500552144
 C          4.1784370851       -0.4962324892        0.1966750469
 C          5.4545630123       -1.2022598678       -0.1738923641
 C          5.4193522365       -1.8782209427       -1.5513084341
 C          4.5581005906       -3.1390873152       -1.6340885697
 H          4.7946228768       -3.6275393837       -2.5815030834
 H          4.8421230048       -3.8248060213       -0.8351926486
 C          3.0467463917       -2.8761860268       -1.5781236833
 H          2.8523723528       -1.8213515863       -1.7869804862
 H          2.5470587369       -3.4522225560       -2.3604284780
 C          2.3855833337       -3.2470406251       -0.2505784563
 H          1.3277789654       -2.9793330696       -0.3166176489
 H          2.4513680741       -4.3265437668       -0.0976337191
 C          2.9846837959       -2.5410587826        0.9731316367
 H          3.9618115186       -2.9625345235        1.2080600429
 H          2.3200951283       -2.7015615530        1.8256096093
 H          5.0724358747       -1.1509101702       -2.2891402498
 H          6.4464180054       -2.1474585734       -1.8086195481
 H          6.2386211679       -0.4419596921       -0.1841655037
 H          5.6981300862       -1.9420483588        0.5893106138
 O          4.2456741999        0.8316271023       -0.0770648564
 C          3.1705338661        1.6855047419        0.1622954384
 O          3.3761303670        2.8539456694       -0.2111201001
 O          0.9220675753       -0.7347658807        1.6396748008
 C          0.8185259339        1.9971606192        1.1054979264
 C         -0.1987922466        1.8805487716       -0.0018629587
 C          0.1796479591        2.0052306954       -1.3347695929
 C         -0.7523157204        1.8655281353       -2.3472377263
 C         -2.0788385523        1.6023593259       -2.0523878736
 C         -2.4671281247        1.4736056233       -0.7257550801
 C         -1.5287972982        1.6151235375        0.2903561483
 H         -1.8341622573        1.4963064017        1.3212078186
 N         -3.8208783103        1.2055160144       -0.4335859773
 S         -4.4400553922       -0.2905516713       -0.8683087987
 O         -4.0365216130       -0.5853092267       -2.2184130403
 O         -5.8609101004       -0.2166504795       -0.6193274005
 C         -3.6963068410       -1.4395226470        0.2759935907
 C         -2.3438618377       -1.6996167403        0.1721722611
 C         -1.7482276316       -2.5276245480        1.1100135135
 C         -2.5135529438       -3.0874170259        2.1216135964
 C         -3.8725687332       -2.8250392232        2.2062126872
 C         -4.4705785116       -1.9841734494        1.2816077809
 H         -5.5204012803       -1.7410618133        1.3146849746
 H         -4.4636907170       -3.2642534253        2.9937919643
 H         -2.0425263813       -3.7287603953        2.8498104186
 H         -0.6851029787       -2.7001499846        1.0656995867
 H         -1.7728636299       -1.2513689200       -0.6257725205
 H         -4.0714985892        1.3971489354        0.5267080014
 H         -2.8127069215        1.4741593829       -2.8307510246
 H         -0.4437810522        1.9647445717       -3.3772000283
 H          1.2142273236        2.2129072865       -1.5674968439
 H          0.3792871802        1.5269039856        2.0002226542
 C          1.1386491930        3.4396624266        1.4644704412
 C          0.8594959262        4.5963280995        0.5576642149
 C          0.0300204334        4.3971856911        1.7885174171
 H          0.1592583980        5.0763700074        2.6173799273
 H         -0.9839323289        4.0519049018        1.6527192130
 H          1.5813311933        5.3980683281        0.5349936820
 H          0.4064469317        4.3963632512       -0.4007330657
 H          2.0364704030        3.5141463715        2.0689635386
