  62
        -98.94049279
 C         -2.2604548308       -1.0202225004       -0.3372332081
 C         -3.5910358419       -1.1299724339        0.1371814259
 C         -4.5325955199       -0.1172001254       -0.3510447316
 C         -4.1087554111        0.8271986904       -1.2104501806
 C         -4.9521130837        1.9175380830       -1.8139186479
 C         -5.1010636459        3.1558053197       -0.9192824413
 C         -6.0077693052        2.9720510771        0.2983383633
 H         -6.1943935780        3.9654779206        0.7109587342
 H         -6.9676395587        2.5670939405       -0.0234930147
 C         -5.4152345957        2.0832981882        1.4008850622
 H         -4.3370973997        1.9868830722        1.2510993738
 H         -5.5608793532        2.5621819752        2.3717780447
 C         -6.0303813003        0.6864458951        1.4883633861
 H         -7.0832663889        0.7667671639        1.7672104472
 H         -5.5139103304        0.1340722713        2.2773752710
 C         -5.9290841372       -0.1314904229        0.1939782672
 H         -6.1862811683       -1.1685580022        0.4222165604
 H         -6.6307754048        0.2488757459       -0.5477179022
 H         -4.1072687145        3.4698077344       -0.5911025907
 H         -5.5149815441        3.9561004166       -1.5370529867
 H         -4.4544859502        2.2182653108       -2.7383998917
 H         -5.9384038465        1.5242638432       -2.0613204314
 O         -2.8255263149        0.8893615709       -1.6564504874
 C         -1.8638911571       -0.0092502809       -1.2127266009
 O         -0.7261009097        0.1963510698       -1.6775794925
 H          1.4463618531       -1.3994520280       -0.2586124692
 C          1.0661905034       -1.0400026223        0.6820266349
 C         -0.2494874064       -1.2739131521        1.0488601801
 C         -0.7054000894       -0.7766257160        2.2683509140
 C          0.1330588197       -0.0558186054        3.0949277303
 C          1.4414958865        0.1914844040        2.7170827024
 C          1.9081258382       -0.3030066262        1.5053161321
 N          3.2494363713       -0.0956757162        1.1271079257
 S          3.5939615483        0.3843076858       -0.4578057971
 O          2.8870140596        1.6057391233       -0.7736470476
 O          3.4052926481       -0.7342538695       -1.3443765249
 C          5.3386195892        0.7220846233       -0.2900853184
 C          6.2225472960       -0.3400862787       -0.3024527081
 C          7.5758100254       -0.0878038262       -0.1433174890
 C          8.0208680972        1.2150735092        0.0251268782
 C          7.1225549149        2.2713252739        0.0329616860
 C          5.7675215913        2.0252544129       -0.1244153056
 H          5.0331983395        2.8148427498       -0.1346010418
 H          7.4712108573        3.2835543185        0.1601727996
 H          9.0747011039        1.4088945491        0.1479334727
 H          8.2775684550       -0.9061112258       -0.1519965448
 H          5.8308548187       -1.3335267094       -0.4453275664
 H          3.7227249979        0.5293619410        1.7680184047
 H          2.0972524577        0.7625471670        3.3572840367
 H         -0.2339927961        0.3239556406        4.0366020757
 H         -1.7327794639       -0.9601170455        2.5521496915
 C         -1.2283389583       -2.0135305052        0.1704573079
 H         -1.7908293972       -2.7147754316        0.8038903198
 C         -0.5852883104       -2.7881991553       -0.9581239154
 C          0.0898981075       -4.0934559000       -0.6648451552
 C         -1.2095243863       -4.0727815496       -1.4107819144
 H         -1.2045703657       -4.3030299195       -2.4656109406
 H         -2.1001699182       -4.4018898463       -0.8955819095
 H          0.9919620123       -4.3365912809       -1.2054063058
 H          0.0815920491       -4.4385858256        0.3580032889
 H         -0.1502389175       -2.1512453365       -1.7200013016
 O         -3.9724052317       -2.0310788884        0.9308872046
