  62
        -98.93753233
 C         -2.2731435043       -0.7673084100        0.0742796946
 C         -3.1797396834       -0.2463012823        1.0326384175
 C         -4.1266455912        0.7918088887        0.5848961789
 C         -4.0794274214        1.1943688878       -0.6983049488
 C         -4.9564052959        2.1987556255       -1.3974904402
 C         -6.3530378422        1.6432972822       -1.7183544555
 C         -7.0119777627        0.8674272409       -0.5810545242
 H         -7.9444740421        0.4449103290       -0.9645853444
 H         -6.3699447577        0.0310115819       -0.2990618670
 C         -7.3478879915        1.6913685602        0.6597862368
 H         -8.0098087578        2.5126039443        0.3761402619
 H         -7.9012497223        1.0395120458        1.3406237664
 C         -6.1542092589        2.2692177713        1.4237981244
 H         -6.5217632443        2.5977202374        2.4003019187
 H         -5.7608006598        3.1536297951        0.9298210612
 C         -5.0296054819        1.2747628275        1.6941273473
 H         -5.4491687953        0.3744850803        2.1573575215
 H         -4.3604031838        1.7011279861        2.4511111215
 H         -6.2597892665        0.9675185832       -2.5720970407
 H         -6.9945634015        2.4747782669       -2.0151625709
 H         -5.0279031778        3.1074821941       -0.8073702885
 H         -4.4580313631        2.4497908531       -2.3364958772
 O         -3.1898731267        0.6688567566       -1.5863080102
 C         -2.2735103525       -0.3071026426       -1.2414486757
 O         -1.5419387831       -0.6554549664       -2.1920164176
 O         -3.2086352538       -0.6424384184        2.2287984279
 C         -1.3182467300       -1.8453731312        0.5580235967
 C          0.0581504039       -1.2907927802        0.8404112889
 C          0.5897006740       -1.3273311310        2.1241741088
 C          1.8587842492       -0.8359388067        2.3755023577
 C          2.6206079559       -0.2951727432        1.3554340360
 C          2.0979528940       -0.2517736005        0.0694004350
 C          0.8284568853       -0.7531128518       -0.1809646922
 H          0.4249828295       -0.7120711813       -1.1821021604
 N          2.8516554039        0.3196858707       -0.9711305479
 S          4.4240221023       -0.2225265845       -1.2025254539
 O          4.7206167706        0.0464704668       -2.5924752791
 O          4.5821339200       -1.5900050621       -0.7638380927
 C          5.4031739950        0.8600623087       -0.1820101602
 C          5.3240784005        2.2196247127       -0.4118525451
 C          6.0824967794        3.0757976301        0.3703796463
 C          6.9052352576        2.5609153763        1.3612865186
 C          6.9771635048        1.1932115429        1.5765712985
 C          6.2200025541        0.3313644423        0.7982626086
 H          6.2400655801       -0.7384632203        0.9322186444
 H          7.6179164694        0.7949164324        2.3467686184
 H          7.4938004221        3.2299811252        1.9689490758
 H          6.0294905590        4.1398894422        0.2052514850
 H          4.6762474362        2.5784108556       -1.1942995778
 H          2.3540164597        0.3517240112       -1.8496931319
 H          3.6084801696        0.0915476744        1.5452069659
 H          2.2586370351       -0.8715156098        3.3773389490
 H         -0.0045118114       -1.7350920477        2.9288994736
 H         -1.7393476501       -2.1896386498        1.5122165909
 C         -1.2315792482       -3.0325836350       -0.3819508016
 C         -0.7585451810       -4.3493860061        0.1533434509
 C         -2.1973348674       -4.1667137879       -0.2246033299
 H         -2.5661366925       -4.6556926765       -1.1137519604
 H         -2.9272514184       -4.0945473919        0.5685429080
 H         -0.1336683931       -4.9654632516       -0.4749796808
 H         -0.5132177696       -4.4027098144        1.2031932077
 H         -0.9404668923       -2.7651880270       -1.3896547151
