  62
        -98.93569053
 C         -1.7059173695       -1.0970597308        0.1697788211
 C         -2.2084062095        0.1279493090       -0.3236134892
 C         -3.6727371695        0.3114417691       -0.2644163294
 C         -4.4374029595       -0.6790602508        0.2288537309
 C         -5.9360125695       -0.7248169907        0.3895659608
 C         -6.7696900895       -0.2113568511       -0.7946207694
 C         -7.4817803095        1.1117472090       -0.5082586698
 H         -7.8562994095        1.0902447093        0.5172417302
 H         -8.3473559894        1.1932417988       -1.1694878698
 C         -6.6293953194        2.3637590890       -0.7080989301
 H         -7.2030255295        3.2169458191       -0.3382361204
 H         -6.4647863194        2.5223727886       -1.7761705501
 C         -5.2685430895        2.3481142592       -0.0086917300
 H         -5.3546705395        1.9139999194        0.9866686601
 H         -4.9491576495        3.3842327492        0.1228193697
 C         -4.1747412294        1.6220950889       -0.8060443698
 H         -3.2824104594        2.2537804489       -0.8644360099
 H         -4.5029463394        1.4736196786       -1.8391801097
 H         -7.5302859894       -0.9615369511       -1.0169066192
 H         -6.1403160894       -0.1189939713       -1.6784205494
 H         -6.1683640095       -1.7750972407        0.5793508411
 H         -6.2046143695       -0.1778016305        1.2966117007
 O         -3.9045251195       -1.8422206906        0.7025915413
 C         -2.5434363695       -2.0809280207        0.6929363514
 O         -2.2079532096       -3.1835903505        1.1699427717
 H          1.7857467505        0.3910188589       -0.6335410891
 C          1.5014817805        0.4863643792        0.4006454508
 C          0.5106243805       -0.3179517806        0.9394850110
 C          0.1565044004       -0.1406942602        2.2755920509
 C          0.7662937904        0.8289503800        3.0460721807
 C          1.7498149604        1.6376813298        2.5032348105
 C          2.1122936005        1.4674338995        1.1726318806
 N          3.0968126705        2.2816174993        0.6031980204
 S          4.0367270106        1.7948432289       -0.6773141594
 O          5.1845222406        2.6765947789       -0.6269741896
 O          3.2882979806        1.8173367885       -1.9089802895
 C          4.5544723005        0.1238740890       -0.3190649089
 C          4.6442069606       -0.7743994213       -1.3626957987
 C          5.0770512206       -2.0656181212       -1.1065494183
 C          5.4107293105       -2.4358594909        0.1865400019
 C          5.3196766504       -1.5214992706        1.2245505516
 C          4.8920979205       -0.2277745906        0.9727062212
 H          4.8171403404        0.4991728096        1.7644933010
 H          5.5797895504       -1.8122032703        2.2296325217
 H          5.7434458705       -3.4422399808        0.3860980522
 H          5.1485019806       -2.7768479315       -1.9138020380
 H          4.3675194806       -0.4446492616       -2.3513747488
 H          3.5743517305        2.9089812895        1.2314695102
 H          2.2228997404        2.4029717400        3.0993908503
 H          0.4765805603        0.9577536803        4.0780344006
 H         -0.6153910796       -0.7715662201        2.6955983811
 C         -0.2128705595       -1.3770815108        0.1456242113
 H         -0.0792792195       -2.3395172907        0.6603467816
 C          0.2718347106       -1.5186508213       -1.2810511786
 C          1.4912179106       -2.3354780214       -1.5806286183
 C          0.1348649906       -2.8467335815       -1.9609165283
 H         -0.1370966894       -2.8656964118       -3.0056317283
 H         -0.2901305094       -3.6557285513       -1.3845569480
 H          1.9979292905       -2.8016855011       -0.7492795282
 H          2.1504683006       -2.0003976316       -2.3664891984
 H          0.0916292006       -0.6311930214       -1.8773786389
 O         -1.4740384594        1.0368180789       -0.7935180895
