  62
        -98.95045927
 C         -1.7641432597       -1.2817504806       -0.2407529293
 C         -2.8565175300       -0.6398360310        0.3859676706
 C         -3.2673700907        0.6442298687       -0.1953431697
 C         -2.6030167411        1.1276589187       -1.2610679899
 C         -2.8991720919        2.4355180184       -1.9354764702
 C         -2.0519430624        3.5731261390       -1.3507192106
 C         -2.0828997923        3.6475730094        0.1758036794
 H         -1.5670068618        2.7737908998        0.5818411996
 H         -1.4916232427        4.5187160198        0.4685682291
 C         -3.4885782823        3.7565283088        0.7828816696
 H         -3.4683998725        4.5142410890        1.5692061994
 H         -4.1942965025        4.0958904282        0.0233920396
 C         -4.0108196115        2.4684635187        1.4220697500
 H         -3.2530187012        2.0678535193        2.1008076000
 H         -4.8897481815        2.7192483184        2.0223859500
 C         -4.4228971810        1.3571876382        0.4483541903
 H         -4.9628719605        0.5967692681        1.0204746606
 H         -5.0982974713        1.7623516177       -0.3080533197
 H         -1.0128541724        3.4257570795       -1.6548145707
 H         -2.4034444130        4.5172271687       -1.7723947308
 H         -2.6679027320        2.3329563782       -2.9973531302
 H         -3.9577112420        2.6635058079       -1.8242833801
 O         -1.5590951509        0.4823243791       -1.8378031898
 C         -1.0933923502       -0.7157681405       -1.3238516596
 O         -0.1003727200       -1.1795485801       -1.9185575496
 O         -3.4607676396       -1.1205562510        1.3845235708
 C         -1.2508288789       -2.5954787301        0.3203499709
 C          0.2041019610       -2.4595211993        0.6968692407
 C          1.1540456815       -3.4451870188        0.4590405908
 C          2.4798553015       -3.2406503080        0.8018301406
 C          2.8910086409       -2.0449669877        1.3619899802
 C          1.9457224604       -1.0578842181        1.6138407301
 C          0.6135763405       -1.2840291889        1.3129840403
 H         -0.1075526399       -0.5069438292        1.5203589502
 N          2.3059135398        0.1981010922        2.1492426497
 S          2.0850525990        1.5123277018        1.1270199494
 O          2.5776835185        2.6540715423        1.8683169291
 O          0.7141900589        1.5736302810        0.6956063996
 C          3.1850840690        1.1772381921       -0.2369555906
 C          2.7919040293        0.3053104316       -1.2322351104
 C          3.6978042594       -0.0097281982       -2.2345015204
 C          4.9685810591        0.5434577825       -2.2242227207
 C          5.3465590987        1.4183093730       -1.2163342910
 C          4.4499460487        1.7342430027       -0.2091895610
 H          4.6963534184        2.4103322631        0.5937714788
 H          6.3342733585        1.8503912935       -1.2107741912
 H          5.6665628791        0.2918302227       -3.0071401207
 H          3.3947004196       -0.6901952585       -3.0140838002
 H          1.7964060895       -0.1120376789       -1.2292912001
 H          3.2473653999        0.2257138728        2.5179748496
 H          3.9298981908       -1.8727095771        1.6001966801
 H          3.2060427619       -4.0155162677        0.6096135207
 H          0.8573776720       -4.3724591891       -0.0031973789
 H         -1.8335939687       -2.7723900802        1.2371047410
 C         -1.5144536785       -3.7266582305       -0.6524556387
 C         -1.7693047277       -5.1161281505       -0.1511223183
 C         -2.8926671782       -4.3096278013       -0.7276572684
 H         -3.2844444182       -4.5836988817       -1.6956484483
 H         -3.6359595383       -3.9080825015       -0.0543711584
 H         -1.3926030773       -5.9490113205       -0.7254991482
 H         -1.7566134074       -5.2726981303        0.9169240517
 H         -0.9702733687       -3.6070492405       -1.5827345488
