  62
        -98.93299289
 C         -2.2378536206       -0.8732794409        0.6489998346
 C         -3.3850944961       -0.8649096644       -0.1801788054
 C         -4.4219810412        0.1328734456        0.1447603347
 C         -4.2339408496        0.9808362308        1.1690360746
 C         -5.1625684634        2.0457820090        1.6976508725
 C         -5.9163126428        2.9056599317        0.6745950833
 C         -5.1437568719        3.1993201594       -0.6196289826
 H         -5.1610966452        4.2746341443       -0.8068951587
 H         -4.0984447798        2.9060200189       -0.5058060440
 C         -5.7400936290        2.4992154929       -1.8430646246
 H         -6.8276682753        2.5911316609       -1.8036850024
 H         -5.4002912238        3.0164807001       -2.7435082481
 C         -5.3676499116        1.0256580110       -1.9995146423
 H         -4.3094735194        0.9370570759       -2.2599550273
 H         -5.9391323926        0.6213294026       -2.8383175179
 C         -5.6183931614        0.1461622547       -0.7636733732
 H         -6.5185221042        0.4525854747       -0.2369128926
 H         -5.7478602777       -0.8840626168       -1.1055307704
 H         -6.8624317232        2.4285171898        0.4233711606
 H         -6.1611439250        3.8447201497        1.1739096906
 H         -5.8858364795        1.5642073688        2.3624491342
 H         -4.5321576168        2.6856293064        2.3201177580
 O         -3.1049100181        0.9499651714        1.9345602429
 C         -2.0971930270        0.0331305292        1.7031781653
 O         -1.1404979830        0.1176982534        2.5017213968
 H          1.4856962695       -1.0680719424        0.7085362172
 C          1.1538941010       -1.0498197275       -0.3190177348
 C         -0.1510222528       -1.4048720564       -0.6306449338
 C         -0.5617548940       -1.3542001138       -1.9587928112
 C          0.3177934510       -0.9487713934       -2.9455384776
 C          1.6169065646       -0.5913678668       -2.6312989036
 C          2.0399890804       -0.6460628373       -1.3080281139
 N          3.3714918369       -0.3385168579       -0.9770432432
 S          3.7188573047        0.4018000325        0.4989422836
 O          3.6390939309       -0.5856998173        1.5454632534
 O          2.9128697705        1.5915048348        0.6631281874
 C          5.4260999184        0.8381225292        0.2237594595
 C          6.3785641736       -0.1603732092        0.3063383371
 C          7.7056065626        0.1579572320        0.0666090588
 C          8.0569026592        1.4621087613       -0.2497872552
 C          7.0906738247        2.4537109416       -0.3265287685
 C          5.7608459175        2.1415630099       -0.0895606027
 H          4.9763377567        2.8800977568       -0.1310376492
 H          7.3669588081        3.4671436107       -0.5692753765
 H          9.0906703311        1.7076574736       -0.4349044435
 H          8.4597952859       -0.6098715707        0.1280942104
 H          6.0591111389       -1.1564100779        0.5646398576
 H          3.8600092111        0.1227196046       -1.7330617612
 H          2.3012100703       -0.2756324984       -3.4042973431
 H         -0.0132607630       -0.9070471825       -3.9723344731
 H         -1.5783075875       -1.6195111962       -2.2044502941
 C         -1.0842084844       -1.8480180454        0.4713907830
 H         -0.5196927984       -1.8074516284        1.4136578300
 C         -1.5376882047       -3.2785250181        0.2488560190
 C         -0.5771214049       -4.3909785161        0.5367455479
 C         -1.7582661455       -4.1688246665        1.4323991939
 H         -2.5731180841       -4.8762815894        1.3998017844
 H         -1.5832875725       -3.7487989282        2.4127799738
 H         -0.5786535168       -5.2535698035       -0.1115681855
 H          0.3998865057       -4.1215679460        0.9104086464
 H         -2.2081012574       -3.3927584083       -0.5921190775
 O         -3.5702965998       -1.6507646321       -1.1459106161
