  62
        -98.93452232
 C         -1.7010246223       -1.6412849889        0.4751905959
 C         -1.7731609791       -0.4001479577        1.1540505270
 C         -2.8878473774        0.5011127213        0.8078921644
 C         -3.7622862801        0.1075768330       -0.1365742886
 C         -4.9512226591        0.8537533226       -0.6822911059
 C         -4.5512950933        1.9759078560       -1.6520987177
 C         -3.4041776737        2.8575543943       -1.1666157016
 H         -3.1606922744        3.5559721506       -1.9716008857
 H         -2.5246560126        2.2341642414       -0.9964806771
 C         -3.7052322208        3.6741331669        0.0883396006
 H         -4.5943377967        4.2839538896       -0.0864273565
 H         -2.8665137796        4.3572943676        0.2449627813
 C         -3.9088800787        2.8730176130        1.3773762173
 H         -4.9122971113        2.4583261060        1.4293336301
 H         -3.8219846248        3.5737896302        2.2128105792
 C         -2.8786284496        1.7742066581        1.6190903826
 H         -2.9525510120        1.4532353251        2.6651296079
 H         -1.8702386048        2.1893258843        1.5170404741
 H         -5.4314913173        2.5909583555       -1.8479173805
 H         -4.2450180705        1.5156640750       -2.5947099948
 H         -5.5553533023        1.2443601014        0.1311469517
 H         -5.5561709761        0.1240005583       -1.2251217194
 O         -3.6384977952       -1.0848881400       -0.7842758550
 C         -2.6130355905       -1.9790288621       -0.5241951215
 O         -2.6462062040       -3.0013117220       -1.2335614889
 O         -0.9340699672       -0.0546030622        2.0292909772
 C         -0.5382208829       -2.5446576879        0.8494874846
 C          0.6515075782       -2.1268204313        0.0248965258
 C          0.6232330877       -2.2053795286       -1.3647541179
 C          1.6963463716       -1.7569819314       -2.1122332207
 C          2.8080715427       -1.2081980779       -1.4946690889
 C          2.8358346341       -1.1084708067       -0.1106466466
 C          1.7647669232       -1.5759580844        0.6401508802
 H          1.7849629776       -1.4837676775        1.7172872053
 N          3.9502096634       -0.5241859629        0.5241539419
 S          4.3659793121        1.0259290578        0.0401943435
 O          4.9786277486        0.9665542260       -1.2625985098
 O          5.1876161895        1.5489079728        1.1076669482
 C          2.8209713253        1.9116072250       -0.0490478891
 C          2.1924046500        2.0684651854       -1.2675806531
 C          0.9682189055        2.7157824874       -1.3088733385
 C          0.3986753909        3.1923633743       -0.1386845927
 C          1.0409341547        3.0240006764        1.0780280918
 C          2.2621626868        2.3728889645        1.1260286195
 H          2.7945329350        2.2304438627        2.0528060485
 H          0.5930243610        3.3904913153        1.9879406362
 H         -0.5525671794        3.6996783664       -0.1775977253
 H          0.4614376798        2.8458496398       -2.2517978958
 H          2.6720698014        1.6927535540       -2.1563140603
 H          3.8943424583       -0.5592616318        1.5324179867
 H          3.6474500347       -0.8437375941       -2.0644834659
 H          1.6665285707       -1.8296283423       -3.1889656644
 H         -0.2541189811       -2.6129677681       -1.8452357255
 H         -0.3158374618       -2.2935610584        1.8983504831
 C         -0.8566268135       -4.0307980344        0.7877886908
 C         -0.0813369855       -5.0062402944       -0.0429975571
 C          0.0707279704       -5.0098940463        1.4462241566
 H         -0.3515291985       -5.8261516460        2.0125199315
 H          0.9926147592       -4.6210582865        1.8529818568
 H         -0.6300332674       -5.8088563974       -0.5119104547
 H          0.7420377218       -4.6385262954       -0.6350641200
 H         -1.9174592752       -4.2306167622        0.8864812796
