  62
        -98.94164715
 C         -2.0711713030       -1.4991705994        0.0471780378
 C         -2.3651045488       -0.5687577782       -0.9799863922
 C         -3.7088879526        0.0320202215       -0.9375620847
 C         -4.5645691821       -0.3153640061        0.0395649166
 C         -5.9405725540        0.2545724608        0.2234993255
 C         -5.9185982043        1.4780634064        1.1500319687
 C         -4.8540701034        2.5116952026        0.7821810598
 H         -4.9530911529        3.3441796207        1.4822454065
 H         -3.8643723213        2.0766476821        0.9407076610
 C         -4.9516800812        3.0392146651       -0.6561852632
 H         -5.9424648506        2.8300842642       -1.0611472959
 H         -4.8310664851        4.1245345337       -0.6394766443
 C         -3.8884560637        2.4880478612       -1.6081920217
 H         -2.8989058682        2.6121173639       -1.1604347110
 H         -3.9098069273        3.0860551570       -2.5233067019
 C         -4.0545116790        1.0188940153       -2.0175532992
 H         -5.0701039805        0.8519791337       -2.3818926671
 H         -3.3582239200        0.8225530317       -2.8381716582
 H         -6.9047987658        1.9453449980        1.1284173115
 H         -5.7261546083        1.1372446523        2.1699764347
 H         -6.3475968171        0.5286319235       -0.7479264908
 H         -6.5736170728       -0.5150917384        0.6683731879
 O         -4.2482825687       -1.2089126482        1.0105559899
 C         -3.0040722439       -1.8133857554        1.0410025230
 O         -2.8496557448       -2.6126560724        1.9858983996
 H          0.0662375568        0.2573963903       -0.4866677000
 C          0.6049079127       -0.1337474638        0.3637980960
 C          0.3071790320       -1.4083520704        0.8274008809
 C          1.0153437985       -1.9017968973        1.9166730207
 C          1.9893764350       -1.1334686827        2.5312058299
 C          2.2825917753        0.1360662168        2.0673232175
 C          1.5846880842        0.6355787137        0.9746446274
 N          1.8898414693        1.9161950865        0.4802958440
 S          3.5087526982        2.2805835459        0.2538621842
 O          4.0919978537        2.6770170193        1.5117237476
 O          3.5358302069        3.2749205372       -0.7951583222
 C          4.2519766174        0.7562967388       -0.3010752948
 C          5.1968168432        0.1240980489        0.4812338664
 C          5.7237762958       -1.0832677369        0.0512981457
 C          5.2959251173       -1.6362701752       -1.1455179661
 C          4.3504991808       -0.9859877424       -1.9237670596
 C          3.8206852681        0.2217662435       -1.4991390337
 H          3.0853309735        0.7535059132       -2.0826514967
 H          4.0167938880       -1.4184971972       -2.8532242626
 H          5.6998615391       -2.5799572959       -1.4760910417
 H          6.4610274973       -1.5900159661        0.6528281412
 H          5.4993720021        0.5882878113        1.4056344750
 H          1.3412050842        2.1764182623       -0.3264268773
 H          3.0328982999        0.7511314749        2.5370395423
 H          2.5263639671       -1.5267688484        3.3806041771
 H          0.7871902634       -2.8893306626        2.2900431437
 C         -0.7473770008       -2.2423605105        0.1470840808
 H         -0.9578238555       -3.1035368911        0.7999930813
 C         -0.2899563353       -2.8010863673       -1.1956995994
 C          0.9023742901       -2.3028619780       -1.9498467812
 C          0.9530829637       -3.6377153740       -1.2740343163
 H          0.9381832130       -4.5311811303       -1.8793266539
 H          1.5507912776       -3.7174281242       -0.3785201810
 H          1.4795373660       -1.4982653710       -1.5231359240
 H          0.8275966604       -2.2634939756       -3.0259146348
 H         -1.1326386759       -3.1275835485       -1.7973379062
 O         -1.5647727067       -0.2395063456       -1.8941387554
