  62
        -98.94632085
 C          1.6911046412        1.3558235227       -0.0962232989
 C          2.6938999949        0.8034221645        0.7335092432
 C          3.2232564708       -0.4985417340        0.3118172527
 C          2.7461271357       -1.0845686710       -0.8019079913
 C          3.1886922974       -2.4099466892       -1.3600786877
 C          2.4980309477       -3.6175962561       -0.7120098985
 C          2.9539973097       -3.9466924797        0.7099450819
 H          2.5582155382       -4.9345637323        0.9538545463
 H          4.0417947412       -4.0166814426        0.7380102341
 C          2.4730369045       -2.9484083593        1.7723630676
 H          2.0801347046       -3.4926838955        2.6343568460
 H          1.6496437473       -2.3550893427        1.3666139062
 C          3.5575382006       -2.0025041475        2.2885208097
 H          3.1021300401       -1.3157492240        3.0070722450
 H          4.3245871485       -2.5761197843        2.8135268104
 C          4.2344833215       -1.1648155500        1.1956458161
 H          4.8210740728       -0.3803810717        1.6804548091
 H          4.9055707150       -1.7882863576        0.6054394509
 H          1.4206971379       -3.4402895346       -0.7122355873
 H          2.6976421946       -4.4858640787       -1.3438582665
 H          4.2699036754       -2.5086612783       -1.2598776788
 H          2.9374959687       -2.3989357878       -2.4224349124
 O          1.7889757321       -0.5137411282       -1.5801765956
 C          1.2297176107        0.7113484023       -1.2452909855
 O          0.3546209472        1.1111638265       -2.0328165592
 O          3.1193793722        1.3659162583        1.7791707551
 C          1.0552065091        2.6781517524        0.2894369667
 C         -0.4382790836        2.5090754289        0.4248434424
 C         -1.3572904296        3.4276695966       -0.0644190638
 C         -2.7170909784        3.1996472374        0.0662302655
 C         -3.1907230707        2.0574563900        0.6845774578
 C         -2.2794152518        1.1349514158        1.1840201620
 C         -0.9196655676        1.3718799636        1.0628551326
 H         -0.2143758294        0.6500821648        1.4573787103
 N         -2.7469463291       -0.0397885246        1.8110558908
 S         -3.6648192971       -1.0973441530        0.8915766196
 O         -4.8894328582       -0.4395197954        0.5136198253
 O         -3.8006908256       -2.2847794153        1.7045100110
 C         -2.6950840583       -1.4642129907       -0.5593012712
 C         -1.9818938849       -2.6457342840       -0.6018767007
 C         -1.2141468454       -2.9233489580       -1.7210911624
 C         -1.1554229654       -2.0100343761       -2.7623157709
 C         -1.8725467816       -0.8257946353       -2.7017687977
 C         -2.6558203163       -0.5497213193       -1.5928388195
 H         -3.2309347855        0.3586422962       -1.5187452508
 H         -1.8136329929       -0.1100235260       -3.5047666328
 H         -0.5440652574       -2.2187791955       -3.6260448812
 H         -0.6661393374       -3.8506962461       -1.7803819526
 H         -2.0533163342       -3.3267182693        0.2315468310
 H         -2.0139790060       -0.5595939616        2.2732143753
 H         -4.2456984208        1.8540822737        0.7718594518
 H         -3.4190525345        3.9208485838       -0.3242259308
 H         -1.0101370361        4.3207463710       -0.5574374995
 H          1.4679122930        2.9280373223        1.2785799126
 C          1.4525308255        3.7627099851       -0.6902974724
 C          1.5749132251        5.1865837477       -0.2385705769
 C          2.8052010758        4.3934776392       -0.5585023005
 H          3.3547940610        4.6294182786       -1.4573578925
 H          3.4286088678        4.0607820450        0.2586774630
 H          1.2821184464        5.9713023159       -0.9198210414
 H          1.3682371326        5.4028046519        0.7987346262
 H          1.0851294880        3.5707366960       -1.6921616274
