  62
        -98.93925344
 C         -0.7629068601       -1.2849566796        0.2969533998
 C         -1.6033227398       -0.6681138898        1.2539073402
 C         -2.5422959299        0.3593934704        0.7636254707
 C         -2.5114617603        0.6894717607       -0.5406989192
 C         -3.4348481705        1.6169551509       -1.2844426287
 C         -4.8113177806        0.9833539711       -1.5502730085
 C         -5.4137574103        0.2248342308       -0.3702496785
 H         -6.3237972704       -0.2684806291       -0.7219225284
 H         -4.7229188202       -0.5600683593       -0.0564847889
 C         -5.7862208799        1.0832275005        0.8364041518
 H         -6.5214658799        1.8310785106        0.5307864822
 H         -6.2657175997        0.4262507204        1.5667200818
 C         -4.6272755296        1.8005374703        1.5315973317
 H         -5.0025820794        2.1735708801        2.4892158319
 H         -4.3119258598        2.6724194804        0.9649420118
 C         -3.4272558096        0.9144921502        1.8535211311
 H         -3.7678171495        0.0498017800        2.4347813210
 H         -2.7579462394        1.4656067400        2.5264215210
 H         -4.7030630008        0.2764134013       -2.3762905587
 H         -5.4979762506        1.7700184912       -1.8670998081
 H         -3.5408645203        2.5550474008       -0.7482983685
 H         -2.9620312507        1.8289566111       -2.2448451188
 O         -1.6145552806        0.1410525309       -1.4058789796
 C         -0.7127482005       -0.8371112193       -1.0234920801
 O          0.0511127292       -1.2043126491       -1.9338580804
 O         -1.5920490995       -0.9774660001        2.4770704201
 C          0.1402227499       -2.4100055597        0.7666368093
 C          1.5386018298       -2.2211785597        0.2389096089
 C          2.1784439095       -3.1273326395       -0.5963816715
 C          3.4632631694       -2.8772224095       -1.0447246218
 C          4.1314576296       -1.7244848596       -0.6770890917
 C          3.4995731098       -0.8121487798        0.1611660187
 C          2.2175289200       -1.0691740698        0.6174033890
 H          1.7361675502       -0.3606487899        1.2768228693
 N          4.1553940400        0.3612892601        0.5593020388
 S          3.3096179902        1.7297894901        0.9734121394
 O          4.2856083602        2.7945922000        0.8625843393
 O          2.7099713706        1.5753824298        2.2762856495
 C          2.0423138499        1.9854242704       -0.2563729502
 C          2.2954849695        1.7032943507       -1.5831577904
 C          1.3290558592        2.0060560310       -2.5283235900
 C          0.1410269593        2.6011277910       -2.1370559595
 C         -0.0996876803        2.8777960507       -0.8006912094
 C          0.8555941100        2.5607404604        0.1502105703
 H          0.7019052003        2.7444462601        1.2022713304
 H         -1.0268545602        3.3346697106       -0.4940544890
 H         -0.6039222309        2.8452768012       -2.8776899192
 H          1.5054462789        1.7743753612       -3.5661874901
 H          3.2286184694        1.2470917908       -1.8703833807
 H          5.0211615099        0.5653739502        0.0835298986
 H          5.1310069095       -1.5269163595       -1.0328937120
 H          3.9479967392       -3.5861736793       -1.6985220721
 H          1.6636768094       -4.0179365094       -0.9162389516
 H          0.1775079403       -2.2934059200        1.8632071793
 C         -0.4219197702       -3.7984433196        0.4949788091
 C         -1.9006847402       -4.0361623396        0.4423281995
 C         -1.0783194806       -4.1557495793       -0.8037149508
 H         -0.9077597908       -5.1417841592       -1.2104520611
 H         -1.1594675508       -3.3824189891       -1.5514984106
 H         -2.2916841001       -4.9362271397        0.8926534693
 H         -2.5495106902       -3.1788444596        0.5482363399
 H          0.1696954399       -4.5737691598        0.9722666887
