  62
        -98.94049080
 C          1.5750861332        0.7541892364       -0.5287667527
 C          2.9211155196        1.1289435707       -0.7783410491
 C          3.9151772761        0.6895782130        0.2095526711
 C          3.5016766635        0.0321927961        1.3075864912
 C          4.4063979406       -0.5163747268        2.3718062709
 C          4.8090734032       -1.9655174865        2.0640090842
 C          5.3152036289       -2.1760966487        0.6368857374
 H          5.5985789524       -3.2267228995        0.5441996787
 H          4.4937580317       -2.0022117676       -0.0618772435
 C          6.5063342536       -1.2889596653        0.2486270930
 H          6.9825708299       -0.8943858278        1.1469226279
 H          7.2470268967       -1.9035646006       -0.2672703836
 C          6.1570808799       -0.1317011129       -0.6892139353
 H          5.5981981768       -0.5123371276       -1.5479637096
 H          7.0907593352        0.2913943694       -1.0691166022
 C          5.3563550470        1.0170550929       -0.0627217205
 H          5.8529498496        1.3579358919        0.8481008058
 H          5.3454621210        1.8444659695       -0.7783255387
 H          5.5809128094       -2.2673156909        2.7743549170
 H          3.9376698436       -2.6064769169        2.2170339658
 H          5.2928855127        0.1105272050        2.4468493273
 H          3.8725132600       -0.4902824226        3.3234179961
 O          2.1976860508       -0.2494740257        1.5497290565
 C          1.2000783570        0.0874569614        0.6392854890
 O          0.0620732860       -0.2635224352        0.9966017386
 H         -2.0065605003        0.2716647501       -0.9706418425
 C         -1.8432515446        1.2945865374       -0.6739092716
 C         -0.6089259450        1.8909688019       -0.8853249360
 C         -0.4192280260        3.2053190078       -0.4671430539
 C         -1.4419039141        3.9118028570        0.1352359751
 C         -2.6733835173        3.3148897340        0.3384814002
 C         -2.8700120364        1.9989362811       -0.0594194028
 N         -4.1197677484        1.3700293786        0.1243223292
 S         -4.1750431794        0.0570351550        1.1791766632
 O         -5.5802185473       -0.0563206401        1.5206610803
 O         -3.2772604277        0.2382076022        2.2958671620
 C         -3.7254607601       -1.3535981663        0.1960849288
 C         -2.5851694248       -2.0701736184        0.4951758448
 C         -2.2973235074       -3.2012639119       -0.2537732901
 C         -3.1431678793       -3.5867865977       -1.2821768128
 C         -4.2806430159       -2.8481295131       -1.5737244242
 C         -4.5805226121       -1.7223966852       -0.8246806794
 H         -5.4613615816       -1.1288710561       -1.0044405725
 H         -4.9331194040       -3.1492026532       -2.3774488734
 H         -2.9117623721       -4.4678358925       -1.8603523749
 H         -1.4089149276       -3.7714700247       -0.0325165913
 H         -1.9342608195       -1.7168635919        1.2788029676
 H         -4.8522763821        2.0166959083        0.3867716801
 H         -3.4776789947        3.8608200206        0.8095744668
 H         -1.2812024607        4.9320227300        0.4500473964
 H          0.5458894716        3.6681143832       -0.6227544592
 C          0.5359165278        1.1744871452       -1.5536271081
 H          1.0655534367        1.9095939238       -2.1821983326
 C          0.0779086428        0.0646196839       -2.4876428307
 C          1.0627846090       -0.9386755127       -3.0080311283
 C         -0.0247662730       -1.3702826394       -2.0728424280
 H         -0.8412093500       -1.9556778925       -2.4693538905
 H          0.2351428697       -1.6211041047       -1.0570007295
 H          2.0724653581       -0.8838376420       -2.6273778260
 H          1.0018134983       -1.2335753554       -4.0445518486
 H         -0.6678901869        0.4194081895       -3.1924678789
 O          3.2753292121        1.8013303204       -1.7833251220
