  62
        -98.93907313
 C         -2.0376921991       -0.8822333648        0.0502902339
 C         -2.2589629486        0.1316112407        1.0071741840
 C         -2.2873860346        1.5211736625        0.5146790147
 C         -2.0924209184        1.7443752063       -0.7984643034
 C         -2.1120374219        3.0633527348       -1.5238511562
 C         -3.5364989500        3.6070075785       -1.7327760570
 C         -4.4709833046        3.4506062034       -0.5353785784
 H         -5.4747717758        3.7396585899       -0.8574232225
 H         -4.5122720918        2.3980259565       -0.2492294081
 C         -4.1122230535        4.2943107775        0.6852661747
 H         -4.1436245470        5.3512021637        0.4111117023
 H         -4.8843194592        4.1222406668        1.4393097826
 C         -2.7521720988        4.0030222533        1.3209727544
 H         -2.7226170700        4.5234988559        2.2829017234
 H         -1.9452608525        4.4162050661        0.7216933675
 C         -2.4849449680        2.5306539598        1.6200648359
 H         -3.2978255942        2.1375695926        2.2415562386
 H         -1.5834024934        2.4602912223        2.2427540234
 H         -3.9807095824        3.0658737693       -2.5714414034
 H         -3.4669586248        4.6603552570       -2.0086720293
 H         -1.4899524776        3.7806216847       -0.9960509299
 H         -1.6562696021        2.8885286852       -2.5009660385
 O         -1.8910379821        0.7327246594       -1.6898135105
 C         -1.8209248319       -0.5886525935       -1.2952701727
 O         -1.5858195775       -1.3934837892       -2.2180965509
 O         -2.4297569436       -0.1105644134        2.2351171944
 C         -1.9084557007       -2.3224011121        0.5119177087
 C         -0.5155107505       -2.8118978571        0.1969711601
 C         -0.2406874078       -4.0529506634       -0.3619362458
 C          1.0621556670       -4.4073998466       -0.6690804977
 C          2.1091329991       -3.5336893371       -0.4423939918
 C          1.8457441888       -2.2970486510        0.1371540906
 C          0.5464453643       -1.9596115250        0.4727793904
 H          0.3553250079       -0.9957367220        0.9232751346
 N          2.8810074067       -1.3824678137        0.4032938694
 S          2.5287036182        0.2641285739        0.2549158818
 O          1.9448968741        0.7253072224        1.4908506332
 O          1.7702748822        0.5155181025       -0.9498131802
 C          4.1785880348        0.9242465993        0.0980552243
 C          4.9371788726        1.0934368741        1.2411348336
 C          6.2316206169        1.5735194860        1.1208733327
 C          6.7436421270        1.8735992785       -0.1329009532
 C          5.9700415251        1.7001992960       -1.2707121448
 C          4.6747652853        1.2193743274       -1.1575475340
 H          4.0323099199        1.0755054062       -2.0117288429
 H          6.3687472373        1.9374684783       -2.2438255220
 H          7.7510535822        2.2476793937       -0.2239455415
 H          6.8348881523        1.7120928088        2.0034392227
 H          4.4918726939        0.8553190769        2.1929609204
 H          3.7417657444       -1.6193603059       -0.0718717919
 H          3.1198643407       -3.8016479180       -0.7100445244
 H          1.2618066187       -5.3718357000       -1.1109792650
 H         -1.0471696201       -4.7363149234       -0.5717629678
 H         -2.0265594123       -2.2923715397        1.6059456641
 C         -3.0042026540       -3.1843922886       -0.0777826493
 C         -3.4990730667       -4.3900823045        0.6625271701
 C         -4.3601143711       -3.1683247878        0.5599501988
 H         -5.2300523184       -3.1990351854       -0.0786041896
 H         -4.4849495575       -2.5527570977        1.4389485084
 H         -3.7823866687       -5.2631020828        0.0943069200
 H         -3.0459501996       -4.6103518111        1.6172315717
 H         -2.9597602674       -3.2258914470       -1.1603158148
