  62
        -98.94591668
 C         -1.2928255274       -1.4238086452        0.6187495800
 C         -2.3677474714       -1.3156676644       -0.2981644384
 C         -3.3681792953       -0.2788481513        0.0036352834
 C         -3.2202984901        0.4918938794        1.0952842842
 C         -4.1434181597        1.6068813216        1.4931403725
 C         -3.7066837450        2.9519078871        0.8950775464
 C         -3.3939430767        2.8937480011       -0.5999574529
 H         -2.5211093622        2.2570060866       -0.7603684642
 H         -3.1225581482        3.9040675778       -0.9131945332
 C         -4.5526247662        2.3880102671       -1.4702715333
 H         -4.6416693834        3.0347408536       -2.3456063945
 H         -5.4907995103        2.4598672285       -0.9186473643
 C         -4.3782064707        0.9593950519       -1.9881062032
 H         -3.3972512538        0.8560812036       -2.4584862602
 H         -5.1319402443        0.7836350550       -2.7602233147
 C         -4.5301831621       -0.1510106134       -0.9410737189
 H         -4.5877748894       -1.1043426991       -1.4742398432
 H         -5.4614670706       -0.0109246327       -0.3883354398
 H         -2.8132136038        3.2943555996        1.4223707374
 H         -4.5003312349        3.6796359688        1.0742039423
 H         -5.1524467256        1.3647689737        1.1643437694
 H         -4.1369767034        1.6841436894        2.5819399828
 O         -2.1769597278        0.3581150355        1.9546349499
 C         -1.1981222745       -0.5976294023        1.7417901475
 O         -0.3075597455       -0.6150264254        2.6163617401
 H          2.2194226127       -1.2583497195        0.8366899768
 C          1.9852020756       -1.3516143375       -0.2132580534
 C          0.7967166781       -1.9512079085       -0.6077882780
 C          0.5237515171       -2.0645132647       -1.9671156319
 C          1.4252670896       -1.5899593170       -2.9021230615
 C          2.6044377722       -0.9840381387       -2.5054483459
 C          2.8843463506       -0.8606546996       -1.1498545002
 N          4.0757590984       -0.2551606512       -0.7167100394
 S          4.0375183639        0.8188367434        0.5661662247
 O          5.2600727603        1.5807302778        0.4271160044
 O          3.8769415971        0.1054454342        1.8063639574
 C          2.6337987419        1.8666414769        0.2348762815
 C          1.4483618902        1.6852920768        0.9156985206
 C          0.3628685735        2.4829097330        0.5879400957
 C          0.4771950816        3.4395525826       -0.4074668726
 C          1.6786475879        3.6131493019       -1.0785992493
 C          2.7665014816        2.8188100417       -0.7582153984
 H          3.7207915695        2.9319087723       -1.2467534218
 H          1.7669152029        4.3620107477       -1.8490211671
 H         -0.3739130400        4.0533345689       -0.6571759434
 H         -0.5661116579        2.3396146039        1.1173999388
 H          1.3749341397        0.9344646723        1.6871604262
 H          4.6580716293        0.0960727885       -1.4634173793
 H          3.3054113310       -0.6118183356       -3.2369111284
 H          1.2036048354       -1.6861481865       -3.9541453593
 H         -0.4087163742       -2.5038475889       -2.2828683137
 C         -0.1684202467       -2.4352920572        0.4485244428
 H          0.3691575641       -2.4436320305        1.4066710310
 C         -0.6691302156       -3.8390101834        0.1720454748
 C          0.2633105865       -4.9920554892        0.3838909781
 C         -0.8871698416       -4.7759619157        1.3198268813
 H         -1.7236512600       -5.4573666524        1.2771452858
 H         -0.6744507502       -4.4091341047        2.3139302216
 H          1.2572173370       -4.7702234654        0.7436562220
 H          0.2193355114       -5.8242293670       -0.3017141656
 H         -1.3669885747       -3.8985511148       -0.6520260889
 O         -2.5119140762       -2.0414518615       -1.3154911650
