  62
        -98.94405993
 C         -2.1260073196       -1.3027529203        0.2394437894
 C         -2.2221010398       -0.5484352598       -0.9549579102
 C         -3.0593774001        0.6597411900       -0.8887945096
 C         -3.6772223600        0.9811350093        0.2617351406
 C         -4.5004254003        2.2166100690        0.4813356513
 C         -3.6357223105        3.3736767690        1.0019621817
 C         -2.3550746606        3.5949436196        0.1973148017
 H         -1.8332412807        4.4454387295        0.6415734721
 H         -1.7122888904        2.7188474797        0.3110248912
 C         -2.5799087508        3.8592947603       -1.2979090781
 H         -3.6163427809        4.1505789001       -1.4719650479
 H         -1.9515394610        4.6978506506       -1.6055497078
 C         -2.2272717407        2.6810026108       -2.2074926187
 H         -2.2216520108        3.0382914313       -3.2408482986
 H         -1.2169281506        2.3309721809       -1.9792290590
 C         -3.1811554904        1.4814113206       -2.1419422392
 H         -4.2091295105        1.8218259004       -2.2808606089
 H         -2.9280390303        0.8104974110       -2.9681643895
 H         -3.3573858103        3.1588443586        2.0362095416
 H         -4.2358687607        4.2851542789        0.9936277222
 H         -4.9799876704        2.4993974394       -0.4537817485
 H         -5.2710925202        1.9894543485        1.2196781112
 O         -3.5742918398        0.2282488888        1.3850341302
 C         -2.8029887095       -0.9196360310        1.4036217296
 O         -2.8015317193       -1.5129362215        2.4998882694
 H          0.3512413103       -1.4497717990       -1.4550684509
 C          0.8688841304       -1.7009828993       -0.5414704311
 C          0.1628032107       -2.2848086700        0.5005297487
 C          0.8380629108       -2.5737270004        1.6808485685
 C          2.1892222508       -2.3000231402        1.8056901285
 C          2.8919416306       -1.7246898295        0.7620926887
 C          2.2204295404       -1.4144634291       -0.4138239511
 N          2.9108910402       -0.8019879085       -1.4725608309
 S          3.9889875899        0.4209691516       -1.1096011704
 O          4.0109771396        1.2721188921       -2.2782612000
 O          5.2567233201       -0.1519143683       -0.7290634108
 C          3.2931195399        1.2951874008        0.2833753501
 C          2.0141548598        1.8040310206        0.1735063404
 C          1.4684993897        2.4810910999        1.2517392808
 C          2.2055251298        2.6375529795        2.4157124508
 C          3.4894926099        2.1244419898        2.5092694804
 C          4.0401261700        1.4457690904        1.4340147801
 H          5.0332471101        1.0277393306        1.4639516198
 H          4.0606160700        2.2483993495        3.4151287204
 H          1.7731112098        3.1626714591        3.2527037211
 H          0.4693626296        2.8810051098        1.1817573011
 H          1.4614478997        1.6678015309       -0.7431183396
 H          2.3210557400       -0.5603043582       -2.2554226507
 H          3.9465905705       -1.5149880093        0.8389028187
 H          2.7018067409       -2.5368581405        2.7253655483
 H          0.2928839510       -3.0072651509        2.5066108283
 C         -1.3111193793       -2.5830209102        0.3590366087
 H         -1.6460947191       -3.0562522607        1.2913058885
 C         -1.5642208092       -3.5496688197       -0.7823687517
 C         -1.2504162189       -5.0009289998       -0.5857770824
 C         -2.6762924090       -4.5457285500       -0.6643571121
 H         -3.2490449190       -4.7857505397       -1.5476402221
 H         -3.2604471189       -4.5374601706        0.2446121480
 H         -0.8409697388       -5.5564116493       -1.4155363427
 H         -0.8680864487       -5.3040054701        0.3772263074
 H         -1.3835118894       -3.1232637592       -1.7600459015
 O         -1.6472950999       -0.8419737892       -2.0385594504
