  62
        -98.93918006
 C          1.8999055703        0.7474657128        0.7180046440
 C          2.1313314770        0.2264207518       -0.5787227836
 C          2.6580800355       -1.1444549549       -0.6286467560
 C          2.8014098491       -1.8522981295        0.5051481823
 C          3.3033239285       -3.2668974676        0.6110260034
 C          4.8337819662       -3.3848646306        0.6335360408
 C          5.5274732484       -3.1167035146       -0.7027612345
 H          6.5638331910       -3.4429147711       -0.5957115171
 H          5.0698383454       -3.7326597079       -1.4773628085
 C          5.5161154786       -1.6450096137       -1.1392441736
 H          5.2797713925       -1.0122156599       -0.2805543673
 H          6.5128644150       -1.3588711546       -1.4821183700
 C          4.5389122400       -1.3274205734       -2.2712174737
 H          4.8421907866       -1.8575310989       -3.1765701479
 H          4.5887234448       -0.2549973706       -2.4759593580
 C          3.0783775462       -1.6835901759       -1.9627370413
 H          2.4419511845       -1.2212123545       -2.7212177355
 H          2.9374427505       -2.7636091658       -1.9985539206
 H          5.2245948879       -2.7017683808        1.3913741898
 H          5.0765549703       -4.4027167311        0.9472201728
 H          2.9113791219       -3.6651520340        1.5495299244
 H          2.9016134424       -3.8597319998       -0.2112241742
 O          2.4766653934       -1.3478736430        1.7266548994
 C          2.0353326698       -0.0417903797        1.8617944752
 O          1.7935577259        0.2946412306        3.0401677859
 O          1.9206293602        0.8601985159       -1.6447140005
 C          1.3769050335        2.1577031684        0.9252735963
 C          0.2216065604        2.4180053812       -0.0114648756
 C          0.1278786453        3.5271403403       -0.8407748552
 C         -0.9814787459        3.7003931320       -1.6507613189
 C         -2.0146284788        2.7830278039       -1.6474951266
 C         -1.9242515806        1.6609482282       -0.8289839061
 C         -0.8177340749        1.4948905940       -0.0147056079
 H         -0.7563338643        0.6242309915        0.6243625211
 N         -2.9350471234        0.6854113717       -0.8435531431
 S         -3.1676057384       -0.2991259024        0.5010988068
 O         -3.2331105754        0.5005147965        1.7049551205
 O         -2.1851120541       -1.3554241200        0.4838081740
 C         -4.7784890012       -0.9656849564        0.1255945335
 C         -5.8987900287       -0.3874092800        0.6921861276
 C         -7.1493381082       -0.8915429752        0.3707745269
 C         -7.2580991460       -1.9580944441       -0.5088218831
 C         -6.1246934595       -2.5291259008       -1.0686214825
 C         -4.8713104130       -2.0303520079       -0.7508733649
 H         -3.9619232237       -2.4458688934       -1.1531113356
 H         -6.2126047989       -3.3601459728       -1.7496876634
 H         -8.2320185369       -2.3489093040       -0.7576252322
 H         -8.0316187332       -0.4518052571        0.8070818928
 H         -5.7636548564        0.4336124800        1.3777490053
 H         -3.8056202442        1.0151532317       -1.2364355623
 H         -2.8771198808        2.9205061010       -2.2814800396
 H         -1.0418046115        4.5656034323       -2.2935422239
 H          0.9292786080        4.2468175916       -0.8685706284
 H          0.9692158718        2.1588652950        1.9512541838
 C          2.4515929449        3.2346759493        0.8839650060
 C          3.8855917932        2.9070864825        1.1735433471
 C          3.4724957557        3.3027417421       -0.2104393039
 H          3.7701903058        4.2758161994       -0.5729356820
 H          3.4309739469        2.5435074767       -0.9746350830
 H          4.4613152983        3.6056371358        1.7621706927
 H          4.1334552375        1.8717721347        1.3597776337
 H          2.0913023061        4.1811202531        1.2755086819
