  62
        -98.93979528
 C         -1.1156519419       -1.3505955192        0.2433996427
 C         -1.4285430937       -0.5181165988       -0.8551656783
 C         -2.3971256821        0.5670278005       -0.6049845714
 C         -2.8574224520        0.7647534664        0.6415632537
 C         -3.8579234334        1.7863210670        1.1077709700
 C         -5.2793847118        1.1983981417        1.1077977397
 C         -6.0274441213        1.3215131048       -0.2189427886
 H         -6.9578805120        0.7573730436       -0.1216679895
 H         -6.2953670299        2.3670957529       -0.3852490912
 C         -5.2677225790        0.8097119900       -1.4452537374
 H         -4.7780756735       -0.1359991386       -1.2058635095
 H         -5.9978755250        0.6051307933       -2.2307210153
 C         -4.2336007517        1.8136508504       -1.9762629091
 H         -4.3955623679        1.9688063471       -3.0451725105
 H         -4.3941275158        2.7795921639       -1.4980966937
 C         -2.7683701023        1.3884978439       -1.8102391199
 H         -2.4711317733        0.7754230956       -2.6669780682
 H         -2.1333322065        2.2804462053       -1.8392586565
 H         -5.8682255851        1.7047069573        1.8753292183
 H         -5.2070483951        0.1458446360        1.3933033245
 H         -3.5903932886        2.0365875321        2.1363648819
 H         -3.8065307147        2.6871888020        0.5038060132
 O         -2.4774297441       -0.0169464852        1.6883408579
 C         -1.6325605984       -1.0931465201        1.5179716293
 O         -1.4118928139       -1.7413597134        2.5593078488
 H          1.1304055076       -0.8537116993       -1.4613993882
 C          1.7681580521       -1.2354380913       -0.6778672907
 C          1.2518953146       -2.1404332618        0.2382531056
 C          2.0856198567       -2.6153323791        1.2432340231
 C          3.4015382199       -2.1930505200        1.3275407798
 C          3.9074235401       -1.2767636030        0.4221120991
 C          3.0777205273       -0.7934138383       -0.5801953466
 N          3.5601399870        0.2019680430       -1.4654300191
 S          3.7956461375        1.6817848012       -0.7105834080
 O          3.8225873706        2.6695955291       -1.7648240977
 O          4.9762400186        1.5955586225        0.1106215838
 C          2.3564330013        1.9050603294        0.3225198225
 C          1.2260101394        2.4794544319       -0.2224203386
 C          0.0906844482        2.5993882405        0.5621665278
 C          0.0980825421        2.1246387263        1.8642744959
 C          1.2380480569        1.5419246406        2.3943622610
 C          2.3814813342        1.4340763455        1.6199866796
 H          3.2903415108        0.9989698501        2.0016377623
 H          1.2350601722        1.1666740480        3.4051888011
 H         -0.7907835514        2.2051042193        2.4701774256
 H         -0.7986955501        3.0550204144        0.1577778239
 H          1.2564847844        2.8337749582       -1.2405911660
 H          2.9442087045        0.3369474263       -2.2565187341
 H          4.9187225368       -0.9095970642        0.4905830721
 H          4.0372099331       -2.5726266538        2.1129176853
 H          1.6910386068       -3.3066129225        1.9732995197
 C         -0.1954325842       -2.5598739214        0.1557982843
 H         -0.4187253670       -3.1658069298        1.0439362571
 C         -0.4394547933       -3.4100380057       -1.0763555904
 C         -0.0273278283       -4.8498601410       -1.0589120556
 C         -1.4809512644       -4.4853507967       -1.0316484319
 H         -2.0767200536       -4.6623823144       -1.9145033467
 H         -2.0227858187       -4.6189644220       -0.1063902993
 H          0.3786002416       -5.2798797404       -1.9616226039
 H          0.4150221754       -5.2338838320       -0.1521932283
 H         -0.3277673582       -2.8652010735       -2.0043153506
 O         -0.9411616957       -0.6498799143       -2.0116892077
