  62
        -98.94513687
 C         -1.5386499125       -0.8016142534        0.0112246661
 C         -2.8124046858       -1.4150820592        0.0484435947
 C         -3.9148716828       -0.5733817896        0.5328025252
 C         -3.6563451602        0.6884962650        0.9227701180
 C         -4.6929750295        1.6704101524        1.3853015968
 C         -5.2364208304        2.4985766376        0.2125244366
 C         -5.6591376453        1.6590466067       -0.9930205175
 H         -4.7755338364        1.1822240573       -1.4233417777
 H         -6.0527078071        2.3454542520       -1.7459057338
 C         -6.7112019033        0.5855244716       -0.6813939876
 H         -7.4774008695        0.6093453028       -1.4592722390
 H         -7.2039596924        0.8125279338        0.2647549018
 C         -6.1656317006       -0.8430771710       -0.6379276015
 H         -5.5919046690       -1.0440806877       -1.5462731017
 H         -7.0149865780       -1.5315180124       -0.6292328063
 C         -5.2871305474       -1.1848750240        0.5722023621
 H         -5.1324332908       -2.2679921166        0.5745800533
 H         -5.8065837459       -0.9109719574        1.4928814805
 H         -4.4580555743        3.1933716249       -0.1107339267
 H         -6.0875195567        3.0826311159        0.5674548648
 H         -4.2305168645        2.3426713610        2.1098399251
 H         -5.5051229116        1.1325989788        1.8705848307
 O         -2.4141326100        1.2346386452        0.8962220914
 C         -1.3230344642        0.5104841384        0.4348222032
 O         -0.2457912375        1.1312366870        0.4561340905
 O         -3.0166742704       -2.6097556188       -0.3003952255
 C         -0.3508990575       -1.5941151427       -0.5016518536
 C          0.7438344681       -1.6249576389        0.5350265494
 C          0.4236783550       -1.9527525373        1.8504936635
 C          1.3959813958       -1.9696204512        2.8306958281
 C          2.7078385252       -1.6506073351        2.5247707019
 C          3.0409914446       -1.3388321300        1.2129362907
 C          2.0641447836       -1.3411941346        0.2257748553
 H          2.3558553532       -1.1209563018       -0.7863466382
 N          4.3628871955       -1.0326048898        0.8668486129
 S          4.7113298833       -0.0056193732       -0.4006847838
 O          4.5399341374       -0.6933771296       -1.6564003632
 O          6.0558965859        0.4524249961       -0.1195745818
 C          3.5731793733        1.3622300718       -0.2879702795
 C          2.8209503445        1.7108552803       -1.3899230711
 C          1.9576130881        2.7895525257       -1.2993470541
 C          1.8595037631        3.4958800604       -0.1123287626
 C          2.6236577926        3.1350312373        0.9854413172
 C          3.4911231149        2.0594509763        0.8999185418
 H          4.1008879989        1.7594258168        1.7369227118
 H          2.5390268044        3.6845198931        1.9093327922
 H          1.1771857352        4.3280041118       -0.0408094738
 H          1.3562808273        3.0686741628       -2.1502767940
 H          2.9214515015        1.1293831131       -2.2932287462
 H          4.9992301989       -0.9175889788        1.6410373508
 H          3.4663819726       -1.6493845150        3.2923064285
 H          1.1306874885       -2.2232761253        3.8460907034
 H         -0.6033397928       -2.1883104764        2.0946646564
 H         -0.7197584330       -2.6201604840       -0.6497483536
 C          0.1046812249       -1.0396945974       -1.8353727208
 C          0.7859580700       -1.9266555022       -2.8327649965
 C         -0.6123238291       -1.4501014018       -3.0850338066
 H         -0.7761701770       -0.7098151108       -3.8537634070
 H         -1.4201955744       -2.1601218909       -2.9832834602
 H          1.5911465070       -1.5174313981       -3.4249973381
 H          0.9277845284       -2.9627253080       -2.5642454579
 H          0.4316306806       -0.0079270487       -1.7611490428
