  62
        -98.94754370
 C         -1.3322730571       -1.6304512348       -0.5002533060
 C         -1.1916664221       -0.3199052725       -1.0217851474
 C         -2.3787835248        0.5440357224       -0.9164732787
 C         -3.5069447650        0.0648336882       -0.3647422526
 C         -4.7758366761        0.8436514929       -0.1737086151
 C         -4.8209179193        1.5151957891        1.2050407571
 C         -3.5555876984        2.3000775709        1.5517132430
 H         -3.7191259115        2.7697653184        2.5244634523
 H         -2.7182459431        1.6074520540        1.6708470073
 C         -3.1722091451        3.3733975947        0.5239556619
 H         -2.8956855357        4.2843423515        1.0593873508
 H         -4.0317992243        3.6129553508       -0.1038600117
 C         -1.9802680593        2.9984036257       -0.3592490395
 H         -1.1648293864        2.6385898096        0.2749484951
 H         -1.6367576403        3.9061283318       -0.8646702061
 C         -2.2554147816        1.9463635800       -1.4420882032
 H         -3.1451707731        2.2267219371       -2.0104019323
 H         -1.3988120161        1.9356043453       -2.1224229492
 H         -5.6838903217        2.1831886473        1.2356199641
 H         -4.9620287159        0.7419982518        1.9638040253
 H         -4.8557643779        1.5941996934       -0.9576193774
 H         -5.6163906272        0.1523558513       -0.2575917008
 O         -3.6098046304       -1.1997151980        0.1178012181
 C         -2.5286475698       -2.0619231096        0.0807695199
 O         -2.7578813085       -3.1840782656        0.5778591955
 O         -0.1479469647        0.1273098477       -1.5665585022
 C         -0.2104236866       -2.6596344371       -0.4936192295
 C          0.7168559417       -2.4139192627        0.6721027236
 C          0.9036349241       -3.3721290054        1.6613929725
 C          1.7409176053       -3.1185444805        2.7337539455
 C          2.3925129679       -1.9034519269        2.8476134499
 C          2.2099170720       -0.9389642370        1.8628214484
 C          1.3922608984       -1.2068484946        0.7760598265
 H          1.2483687610       -0.4528650754        0.0207723222
 N          2.8606994171        0.3009336296        1.9281547457
 S          2.0988953996        1.6725607488        1.3384435135
 O          2.7963438191        2.7693477654        1.9827820954
 O          0.6734151275        1.6312214026        1.5713461025
 C          2.4827355208        1.7205563716       -0.3993458664
 C          1.7574110758        2.5845090960       -1.1932264089
 C          2.0598565590        2.6725175433       -2.5419092262
 C          3.0811768119        1.9004417870       -3.0712118802
 C          3.8057985898        1.0432607888       -2.2585155962
 C          3.5093313520        0.9516846481       -0.9079754597
 H          4.0481197763        0.2845630953       -0.2554881461
 H          4.5975995108        0.4396951803       -2.6729525593
 H          3.3095905230        1.9639666074       -4.1236998291
 H          1.4924160758        3.3365145586       -3.1745541020
 H          0.9623208646        3.1593228187       -0.7469135728
 H          3.3653938139        0.4857904433        2.7823604336
 H          3.0327040090       -1.6990639402        3.6923914702
 H          1.8780203328       -3.8699323649        3.4967234439
 H          0.3735842581       -4.3111139796        1.5952579298
 H         -0.6994130563       -3.6305332441       -0.3352543433
 C          0.5647803916       -2.7186033581       -1.7957475380
 C          1.3255808719       -3.9648942976       -2.1303602649
 C          0.0846891413       -3.6155222448       -2.8949327134
 H          0.1816486885       -3.2758775582       -3.9149892777
 H         -0.8081900339       -4.1961210311       -2.7120707310
 H          2.2789377878       -3.8674572768       -2.6260286541
 H          1.2740736464       -4.7863584238       -1.4317648646
 H          0.9975326579       -1.7692001628       -2.0812624586
