  62
        -98.94048996
 C          1.2780044902        1.5927960428        0.0001235282
 C          2.2248435048        1.1306078463        0.9400709949
 C          3.1307956784        0.0534045535        0.4966489690
 C          2.9816551797       -0.4463254554       -0.7444660255
 C          3.8102896794       -1.5138769269       -1.4082769623
 C          3.4835578180       -2.9413192747       -0.9302613390
 C          3.1168286271       -3.0620960087        0.5473997593
 H          2.3281357029       -2.3443520405        0.7815811232
 H          2.7067589131       -4.0617820863        0.7137652702
 C          4.2833019059       -2.8770910318        1.5152996949
 H          3.8902051965       -2.9627740398        2.5317286387
 H          4.9990834284       -3.6894423948        1.3672865069
 C          5.0373272266       -1.5537988120        1.3980720706
 H          5.6135691470       -1.5235890467        0.4775199686
 H          5.7591536091       -1.5154863076        2.2195437435
 C          4.1701809205       -0.3049090723        1.5308122705
 H          4.8311039448        0.5676240056        1.6079804148
 H          3.6335719160       -0.3451576340        2.4857428760
 H          4.3373839473       -3.5850710617       -1.1469480303
 H          2.6351045699       -3.3025765392       -1.5131359520
 H          3.6041848432       -1.4486228035       -2.4784792498
 H          4.8632965766       -1.2850563186       -1.2644488042
 O          1.9990110702       -0.0240068199       -1.5888277601
 C          1.1399619265        1.0086172399       -1.2588440383
 O          0.3215517206        1.3066446039       -2.1465070616
 O          2.3211095865        1.6025844423        2.1068985095
 C          0.3829365337        2.7626900927        0.3668649479
 C         -1.0663216971        2.3535951500        0.2970875977
 C         -2.0270207557        3.0443358463       -0.4284817720
 C         -3.3379482457        2.5987224004       -0.4606676855
 C         -3.7211089721        1.4671235710        0.2346963484
 C         -2.7684021753        0.7727584287        0.9702152711
 C         -1.4563542239        1.2171509699        0.9967389671
 H         -0.7143992332        0.6721459608        1.5679365830
 N         -3.1513872864       -0.3854531385        1.6827568792
 S         -3.6761188008       -1.6842557757        0.7629895349
 O         -4.8938148883       -1.3155144809        0.0885768103
 O         -3.7635713944       -2.7963499400        1.6817215645
 C         -2.3719458555       -1.9672866777       -0.4182192299
 C         -2.3165867144       -1.1964695823       -1.5622646635
 C         -1.2600415722       -1.3770693740       -2.4401729243
 C         -0.2844971472       -2.3209405716       -2.1601555440
 C         -0.3563171797       -3.0895176702       -1.0085634010
 C         -1.4049288228       -2.9069202559       -0.1225663303
 H         -1.4985171451       -3.4830648625        0.7842559078
 H          0.4009502385       -3.8264902227       -0.7937508655
 H          0.5385293341       -2.4494050023       -2.8455690598
 H         -1.1891857960       -0.7658813919       -3.3248889286
 H         -3.0924794038       -0.4726677545       -1.7509053880
 H         -2.4384856730       -0.7063429094        2.3233422787
 H         -4.7338145517        1.0990199818        0.2074060655
 H         -4.0723197649        3.1423350855       -1.0355159221
 H         -1.7502326938        3.9288607534       -0.9776347673
 H          0.6211733137        2.9958546438        1.4153615308
 C          0.7213379709        3.9660223670       -0.4877417737
 C          0.4715201171        5.3509418192        0.0275345299
 C          1.8738943080        4.8358452877       -0.0879660101
 H          2.5106087491        5.2369190455       -0.8622188953
 H          2.4015255900        4.5753770075        0.8181062834
 H          0.1469901412        6.1103322690       -0.6677037791
 H          0.0471694101        5.4475675056        1.0153956438
 H          0.5822247331        3.7786574531       -1.5464787011
