  62
        -98.94618264
 C         -1.3975243295       -1.1447636707       -0.1551968493
 C         -2.5212492697       -1.1821292609        0.7080139006
 C         -3.2646877300        0.0754130589        0.8552360904
 C         -2.8279590202        1.1740777190        0.2125646204
 C         -3.5052618506        2.5127730088        0.2531910702
 C         -4.5135024504        2.6617605885       -0.8942672199
 C         -5.4736946201        1.4798520282       -1.0271143600
 H         -6.1604982700        1.7083521080       -1.8449880101
 H         -4.9087301198        0.5921941083       -1.3206184999
 C         -6.2780200502        1.1696277781        0.2430869399
 H         -6.2631710405        2.0311061881        0.9117465399
 H         -7.3193653101        0.9949734578       -0.0358341902
 C         -5.8079124800       -0.0711472618        1.0049302600
 H         -5.7323732697       -0.9165364418        0.3162781701
 H         -6.5699926200       -0.3224667319        1.7475514199
 C         -4.4731986201        0.0662529686        1.7485943602
 H         -4.4945582705        0.9566992486        2.3802985502
 H         -4.3615730900       -0.8094187613        2.3947803903
 H         -5.0833115507        3.5794009483       -0.7369961201
 H         -3.9609558303        2.7604352286       -1.8313112099
 H         -4.0098474207        2.6295196287        1.2102408101
 H         -2.7445303207        3.2888154590        0.1584844503
 O         -1.7360223801        1.1771511092       -0.5907328294
 C         -0.9948854798        0.0243976894       -0.8031602793
 O         -0.0319261797        0.1774108896       -1.5767654791
 H          1.8098095507       -1.5627231699       -1.3760563188
 C          1.8537955006       -1.6843156299       -0.3057432288
 C          0.7459285006       -2.1532767501        0.3835134111
 C          0.8268201505       -2.2798502900        1.7675628611
 C          1.9850789303       -1.9423363097        2.4425511513
 C          3.0820989603       -1.4534354094        1.7536342914
 C          3.0058054204       -1.3144812295        0.3745699014
 N          4.1048312804       -0.7776364293       -0.3321102385
 S          4.5256255499        0.7995685609        0.0464204515
 O          5.4543456700        1.2062182310       -0.9840238684
 O          5.0249482897        0.8332663211        1.3984566916
 C          3.0250272397        1.7560553705       -0.0702919188
 C          2.1660174595        1.7995229103        1.0090694011
 C          0.9860360093        2.5157289200        0.8945285009
 C          0.6882530594        3.1727711798       -0.2883217592
 C          1.5590351695        3.1154762000       -1.3639436291
 C          2.7368961697        2.3958060403       -1.2582441389
 H          3.4416782698        2.3262706005       -2.0715087187
 H          1.3168676495        3.6186328899       -2.2862684391
 H         -0.2342720408        3.7244952596       -0.3770686594
 H          0.2980439092        2.5497532898        1.7251793908
 H          2.4313202795        1.2800624204        1.9157754312
 H          3.9908556105       -0.8480469194       -1.3342270985
 H          3.9832331401       -1.1551037892        2.2645072215
 H          2.0339618102       -2.0519871796        3.5155023913
 H         -0.0395522295       -2.6315317402        2.3102551210
 C         -0.5702337692       -2.4120159005       -0.3046370791
 H         -1.1104486291       -3.1839367206        0.2590993709
 C         -0.4396917289       -2.8593504005       -1.7445309490
 C          0.0659638415       -4.2397276804       -2.0366248689
 C         -1.3744731585       -3.9028923608       -2.2752160391
 H         -1.7216886684       -3.8127704109       -3.2936806592
 H         -2.1128225085       -4.3052693510       -1.5972134692
 H          0.7091099717       -4.3852639303       -2.8910869788
 H          0.3068527816       -4.8693213303       -1.1933801688
 H         -0.1576934390       -2.0619537005       -2.4209194490
 O         -2.8823813295       -2.2181967410        1.3277516906
