  62
        -98.94179302
 C         -0.7847552929       -1.8403005000        0.5303849455
 C         -1.7354398646       -1.5561984297       -0.4803679169
 C         -2.8283773656       -0.6533544226       -0.0952828373
 C         -2.8937221160       -0.1811101581        1.1619995262
 C         -3.9252424136        0.7691522119        1.7065906733
 C         -3.8757196490        2.1912096108        1.1119794647
 C         -4.8582861646        2.4212857986       -0.0433072980
 H         -5.6771351195        1.7054466118        0.0431726546
 H         -5.2973835425        3.4155106806        0.0623708798
 C         -4.2602845105        2.3445838053       -1.4515547665
 H         -5.0862562932        2.2657748442       -2.1626190610
 H         -3.7281648656        3.2751512796       -1.6631923977
 C         -3.2776617358        1.1993292632       -1.7000930881
 H         -3.0891325906        1.1393248507       -2.7744895815
 H         -2.3167658159        1.4375916286       -1.2355861485
 C         -3.7443724183       -0.1768459836       -1.1837679959
 H         -4.7739595236       -0.1287789689       -0.8321321570
 H         -3.6855710458       -0.9130359712       -1.9882481659
 H         -2.8557719392        2.4158911255        0.7953584901
 H         -4.1247087013        2.8851084561        1.9168398750
 H         -4.9195818372        0.3430074828        1.5567088609
 H         -3.7409073973        0.8228922821        2.7814868874
 O         -2.0009552996       -0.5390702996        2.1245837426
 C         -0.9021654483       -1.3293477543        1.8209816535
 O         -0.1154908695       -1.5031877934        2.7750976314
 H          0.4779907272        0.0424874041       -0.2575499496
 C          1.1414359358       -0.4652674827       -0.9382764622
 C          1.2549106223       -1.8464907598       -0.8795834637
 C          2.0979799475       -2.4757240185       -1.7881331727
 C          2.7852658949       -1.7334131095       -2.7332847518
 C          2.6563785756       -0.3570991787       -2.7943080166
 C          1.8170228748        0.2815901595       -1.8887315377
 N          1.6244549134        1.6683272231       -1.9231271599
 S          1.1968831736        2.5238897906       -0.5577890094
 O         -0.1675352402        2.2493825592       -0.1815898491
 O          1.4873607815        3.8990476128       -0.9043467137
 C          2.3305037754        1.9745061370        0.7042527453
 C          1.8776501059        1.2716549262        1.8006848766
 C          2.7953321309        0.8173498432        2.7348604317
 C          4.1448235292        1.0793395397        2.5603810252
 C          4.5850651426        1.8004771266        1.4600512324
 C          3.6723229728        2.2494684700        0.5205836559
 H          3.9755265034        2.8190863798       -0.3427033855
 H          5.6349953568        2.0081574667        1.3309162855
 H          4.8555801117        0.7204423604        3.2879116749
 H          2.4398149483        0.2499211029        3.5804468249
 H          0.8225281993        1.0756889858        1.9145461365
 H          2.2313445720        2.1857785457       -2.5397603744
 H          3.1847910686        0.2158148736       -3.5404287315
 H          3.4313373572       -2.2354873593       -3.4372525852
 H          2.2072187522       -3.5477794323       -1.7621754939
 C          0.4812551131       -2.5981481890        0.1816656255
 H          1.0908910787       -2.6135833614        1.0980789961
 C          0.1692295813       -4.0260868926       -0.2194474331
 C          1.1109500304       -5.1382925396        0.1295944218
 C         -0.1967925046       -5.0104310601        0.8494179255
 H         -0.9759617846       -5.7289768106        0.6443410804
 H         -0.1883083300       -4.6557939705        1.8701384383
 H          1.2296092061       -5.9511099887       -0.5710563965
 H          2.0095687546       -4.8845587938        0.6715960551
 H         -0.3693430492       -4.0834521770       -1.1580585449
 O         -1.6656645252       -2.0148541790       -1.6503626522
