  62
        -98.94620444
 C          1.2100758046        1.4866322045        0.6278033277
 C          2.2301569946        1.3665224394       -0.3484222512
 C          3.2398895894        0.3298164807       -0.0925458940
 C          3.1691192806       -0.4221292025        1.0196247633
 C          4.1509809533       -1.4845068536        1.4363314858
 C          3.9209885742       -2.8598933963        0.7947137877
 C          4.2510738587       -2.9515434149       -0.6953640812
 H          5.2653073201       -2.5883433607       -0.8638452221
 H          4.2384452370       -4.0104934408       -0.9610957104
 C          3.2736856639       -2.1981074562       -1.6087391158
 H          2.9936645609       -2.8360888414       -2.4496478300
 H          2.3577631925       -1.9698319927       -1.0593307277
 C          3.8317178282       -0.8999224714       -2.1912357439
 H          3.0490961829       -0.4278564604       -2.7904035068
 H          4.6734462640       -1.1234032872       -2.8505207138
 C          4.2945197706        0.1118543006       -1.1350918045
 H          5.2235242268       -0.2224334283       -0.6736680380
 H          4.4740111557        1.0687962710       -1.6309500162
 H          4.5522668953       -3.5739640835        1.3289460444
 H          2.8818934569       -3.1531193532        0.9547233669
 H          5.1639292081       -1.1462296492        1.2147754305
 H          4.0518949081       -1.5901043435        2.5191730616
 O          2.1794954005       -0.2676355090        1.9406184422
 C          1.1775413996        0.6719123381        1.7619959102
 O          0.3298545826        0.6895644469        2.6784024245
 H         -2.1498066123        1.0588598603        0.8585620809
 C         -1.9846692251        1.2746457433       -0.1864954627
 C         -0.8849305308        2.0326883076       -0.5685822913
 C         -0.7005460840        2.3103229885       -1.9185536704
 C         -1.5986808038        1.8359027293       -2.8573892161
 C         -2.6893261537        1.0759914095       -2.4746556351
 C         -2.8837204404        0.7930131506       -1.1273110097
 N         -3.9954653653        0.0443748008       -0.7128212801
 S         -3.8873823351       -1.0326355826        0.5581612061
 O         -5.0396255239       -1.8917392183        0.3867703641
 O         -3.8118145905       -0.3225273691        1.8087410751
 C         -2.4004273345       -1.9708337479        0.2630355619
 C         -2.4011668051       -2.8600399641       -0.7951162600
 C         -1.2578117172       -3.5956952104       -1.0564188710
 C         -0.1356113465       -3.4334418245       -0.2573446831
 C         -0.1534823488       -2.5403026080        0.8015757378
 C         -1.2934636856       -1.7972963595        1.0662097887
 H         -1.3224005661       -1.0904364566        1.8810651704
 H          0.7116843653       -2.4030013831        1.4319066875
 H          0.7547929199       -4.0085425042       -0.4593114964
 H         -1.2422489736       -4.2937736247       -1.8777051144
 H         -3.2986956388       -2.9743569711       -1.3809824595
 H         -4.5619290207       -0.3219603887       -1.4636492764
 H         -3.3897844725        0.7084554302       -3.2088492415
 H         -1.4445891352        2.0572685577       -3.9025697487
 H          0.1616706641        2.8761475294       -2.2303135244
 C          0.0811042392        2.4980184414        0.4951279445
 H         -0.4506792453        2.4777452192        1.4563317884
 C          0.5889927242        3.9060777781        0.2582028436
 C         -0.3399712528        5.0595054893        0.4830138199
 C          0.7950299868        4.8148532621        1.4306487915
 H          1.6357699481        5.4922514555        1.4162005968
 H          0.5661067119        4.4257944477        2.4125826050
 H         -0.2811231538        5.9074214180       -0.1818838102
 H         -1.3402834621        4.8347215446        0.8224530782
 H          1.3011362908        3.9804654117       -0.5527330933
 O          2.3206598722        2.0846373012       -1.3766734766
