  62
        -98.94512894
 C         -2.4453005101       -1.1993598576       -0.0872412658
 C         -3.5250742088       -0.8122324095        0.7468888572
 C         -4.4018069319        0.2432432366        0.2254199353
 C         -4.1370699242        0.7804903991       -0.9794203654
 C         -4.9093981279        1.9047372561       -1.6052608502
 C         -4.3054137546        3.2668948066       -1.2359953591
 C         -4.0450253866        3.4430173162        0.2601572459
 H         -3.2617238660        2.7466815820        0.5695200962
 H         -3.6503841373        4.4512472663        0.4040440686
 C         -5.2816102721        3.2452482567        1.1481627599
 H         -6.1868315550        3.3267516432        0.5454852131
 H         -5.3116489014        4.0471036432        1.8887706976
 C         -5.3034742167        1.9246812681        1.9200000112
 H         -4.3566294458        1.7952212954        2.4501791867
 H         -6.0948286216        1.9835632985        2.6718612184
 C         -5.5622111899        0.6666268374        1.0815736892
 H         -5.7420373991       -0.1617815188        1.7728364509
 H         -6.4577163591        0.8074699068        0.4731395185
 H         -4.9815098885        4.0498159212       -1.5844703294
 H         -3.3548529050        3.3789786246       -1.7632428951
 H         -4.8745752015        1.7843327025       -2.6893584734
 H         -5.9455381773        1.8538780544       -1.2763111647
 O         -3.0947627256        0.3840196165       -1.7523262364
 C         -2.2184009005       -0.6051105653       -1.3286423074
 O         -1.3115363339       -0.8569024243       -2.1464309607
 H          0.7249487549       -2.0214672561       -1.1541044593
 C          0.8495919186       -1.5604454165       -0.1871377998
 C         -0.1770858348       -1.6195333214        0.7422575884
 C         -0.0027368918       -0.9841013852        1.9687700618
 C          1.1711179585       -0.3131860238        2.2555294071
 C          2.1908296277       -0.2497444046        1.3214011008
 C          2.0185472492       -0.8635324102        0.0887051893
 N          3.0402353380       -0.7860244145       -0.8749897292
 S          3.6843639873        0.7304464111       -1.2049536933
 O          2.7374769628        1.7884355625       -0.9367983799
 O          4.1898368144        0.6432250739       -2.5578676112
 C          5.0652272005        0.8470474813       -0.0845195664
 C          5.1699750069        1.9243748215        0.7732586563
 C          6.2567410536        1.9953267767        1.6311735410
 C          7.2150043493        0.9935724728        1.6153502551
 C          7.0973377735       -0.0800255693        0.7450594873
 C          6.0140282114       -0.1563126970       -0.1155132336
 H          5.8867564389       -0.9705780231       -0.8089972869
 H          7.8448393595       -0.8568334961        0.7350814448
 H          8.0587864533        1.0504123521        2.2847469973
 H          6.3499579866        2.8299561183        2.3073823543
 H          4.3973523125        2.6767267668        0.7540949799
 H          2.8058463306       -1.2581249140       -1.7370773406
 H          3.1038552452        0.2827040815        1.5320440303
 H          1.2938498795        0.1699104901        3.2130018405
 H         -0.8084995830       -1.0117012221        2.6890724358
 C         -1.5002858118       -2.2728244459        0.4296705854
 H         -1.9432012517       -2.6156690020        1.3743317051
 C         -1.3960080585       -3.4525345744       -0.5135474878
 C         -0.7988943598       -4.7341498688       -0.0166177224
 C         -2.2700520536       -4.6481495879       -0.2874320663
 H         -2.6684849984       -5.1634909227       -1.1485437155
 H         -2.9451941683       -4.6209837590        0.5551863548
 H         -0.1848188844       -5.3126805464       -0.6896104551
 H         -0.4739074803       -4.7637463090        1.0122814962
 H         -1.2076355939       -3.1687986164       -1.5417141884
 O         -3.7463577255       -1.3301347002        1.8735433472
