  62
        -98.93815886
 C          0.1541702957        1.7434875015       -1.0959828755
 C          1.3005238845        2.2331652493       -0.4225876177
 C          2.5492000013        1.4724055668       -0.5828420077
 C          2.5461151542        0.3625906735       -1.3395702872
 C          3.6970908707       -0.5518958710       -1.6796416374
 C          4.6686195538       -0.9256057674       -0.5528850918
 C          4.0400365170       -1.0488003528        0.8430432764
 H          2.9493103442       -1.0528051574        0.7820680671
 H          4.3401437813       -2.0012304459        1.2857878998
 C          4.4761018218        0.0683157750        1.7938502919
 H          5.5475214378        0.2445998547        1.6701549081
 H          4.3125271045       -0.2665527754        2.8211365337
 C          3.7241550545        1.3869985378        1.6254284173
 H          2.6816688025        1.2484467184        1.9278310538
 H          4.1646836391        2.1186162277        2.3077762075
 C          3.7275555820        1.9706833171        0.2023289571
 H          3.6017101992        3.0540670606        0.2816460355
 H          4.6677203618        1.7657444602       -0.3049081599
 H          5.4759291146       -0.1953134664       -0.5115677182
 H          5.1219613221       -1.8788780024       -0.8311826957
 H          3.2322566318       -1.4578913437       -2.0761020506
 H          4.2614209081       -0.0956733044       -2.4986869273
 O          1.4255320441       -0.0722939758       -1.9766283850
 C          0.1989940533        0.5699524770       -1.8480410106
 O         -0.7230224959       -0.0027291018       -2.4550273180
 H         -1.3092441055       -0.0597569738        0.0234108095
 C         -1.6984076699        0.6293393705        0.7560728974
 C         -1.7240282977        1.9868119692        0.4731894772
 C         -2.2448696995        2.8547680780        1.4250590543
 C         -2.7133588065        2.3691910318        2.6339653622
 C         -2.6385314898        1.0196714789        2.9307901745
 C         -2.1156982697        0.1454659114        1.9850675825
 N         -1.9860073465       -1.2295286716        2.2333010831
 S         -0.6067428706       -2.0014221723        1.6649865212
 O         -0.4650273690       -3.1610984802        2.5236755277
 O          0.5278557296       -1.1079481972        1.6326083944
 C         -1.0141622509       -2.5611187992        0.0265854614
 C          0.0238702092       -2.7902454072       -0.8531711863
 C         -0.2639715131       -3.2577277813       -2.1243851054
 C         -1.5795066727       -3.4906047531       -2.4902394221
 C         -2.6103067001       -3.2624847492       -1.5926410131
 C         -2.3292540292       -2.7963097210       -0.3188309932
 H         -3.1080776743       -2.5966954208        0.3986928226
 H         -3.6335312353       -3.4378320102       -1.8840665528
 H         -1.8017831181       -3.8437473096       -3.4848658510
 H          0.5371180857       -3.4238452923       -2.8268002453
 H          1.0327864321       -2.5773376895       -0.5346024909
 H         -2.2213215027       -1.5247927889        3.1698402470
 H         -2.9695087828        0.6464809326        3.8879436072
 H         -3.1171076398        3.0524167565        3.3656849467
 H         -2.2587502832        3.9159982824        1.2248235186
 C         -1.1476934309        2.4804495832       -0.8310585034
 H         -0.8639543192        3.5355005652       -0.6861624427
 C         -2.1421340381        2.4230756189       -1.9792714129
 C         -3.3594170698        1.5531536643       -1.9600200879
 C         -3.5024321306        3.0381543484       -1.8301798247
 H         -3.9094363852        3.5944206154       -2.6608273863
 H         -3.7697761462        3.4303169056       -0.8607630722
 H         -3.5313691977        0.9437835702       -1.0865503881
 H         -3.6463600677        1.0761594731       -2.8840091694
 H         -1.6543682633        2.5442825482       -2.9405979259
 O          1.2818383307        3.2825840074        0.2774861153
