  62
        -98.94356874
 C         -1.8333844693       -0.8221862663        0.8116837035
 C         -2.0860221490       -0.4333940944       -0.5260107372
 C         -3.4980338986       -0.4404655265       -0.9354754524
 C         -4.4394561397       -0.8237083983       -0.0537370758
 C         -5.9163541059       -0.8201785034       -0.3207271363
 C         -6.5506667612        0.5159708369        0.0908146221
 C         -5.8099973208        1.7421631691       -0.4430759863
 H         -6.3632734037        2.6246412577       -0.1142818537
 H         -4.8217572338        1.7921254060        0.0200011684
 C         -5.6546038715        1.7752183294       -1.9698995735
 H         -6.3673738200        1.0895135763       -2.4294988112
 H         -5.8964810105        2.7794467304       -2.3243195427
 C         -4.2455842699        1.4529703034       -2.4712099271
 H         -4.1939486858        1.7163338351       -3.5310145277
 H         -3.5171553319        2.0742992263       -1.9437986342
 C         -3.8108003785       -0.0122828708       -2.3415693576
 H         -4.5683500276       -0.6619810642       -2.7843466986
 H         -2.8804486683       -0.1331581725       -2.9039098783
 H         -7.5837314028        0.5309738363       -0.2612637820
 H         -6.5629692497        0.5718545604        1.1818779871
 H         -6.0898631305       -1.0061807511       -1.3787442020
 H         -6.3732742379       -1.6230587522        0.2602494336
 O         -4.1535202485       -1.2145973261        1.2151370968
 C         -2.8496869410       -1.2100453847        1.6836270735
 O         -2.7276305362       -1.5635532903        2.8744800200
 O         -1.1830349363       -0.0965275835       -1.3345828812
 C         -0.4092440852       -0.8240155552        1.3358003363
 C          0.2057277819        0.5457972765        1.1809625430
 C         -0.5326565935        1.6660378044        1.5548275289
 C         -0.0060735223        2.9356542630        1.4231535946
 C          1.2746343119        3.1161172101        0.9304542115
 C          2.0255799651        2.0056121662        0.5670601329
 C          1.4895812083        0.7306486911        0.6935622758
 H          2.0888798193       -0.1177264854        0.4100683790
 N          3.3158155762        2.1569321525        0.0432532515
 S          4.5155833329        1.0437910267        0.3732664838
 O          4.4122285846        0.5275572989        1.7182716116
 O          5.7467763136        1.7364148150        0.0563312071
 C          4.2720259107       -0.2653383277       -0.8087756475
 C          4.5757475158       -1.5598584772       -0.4358911054
 C          4.4264202149       -2.5787645550       -1.3637391138
 C          3.9786598826       -2.2862916327       -2.6426062666
 C          3.6813271214       -0.9805587708       -3.0021046425
 C          3.8323241431        0.0432167461       -2.0805799826
 H          3.6032559408        1.0664304423       -2.3271153059
 H          3.3290943217       -0.7571660591       -3.9963176941
 H          3.8588609956       -3.0807037751       -3.3623747451
 H          4.6573906675       -3.5950379302       -1.0857579855
 H          4.9101808230       -1.7435223109        0.5729947712
 H          3.6660919052        3.1028666106        0.0163908809
 H          1.6870866530        4.1080439556        0.8255284751
 H         -0.5946139838        3.7942338138        1.7104485547
 H         -1.5317976288        1.5258729947        1.9456750869
 H         -0.4781180294       -1.0450751428        2.4115015622
 C          0.3872024703       -1.9231755098        0.6631364692
 C          1.5253152299       -2.5829615585        1.3800746555
 C          0.2435443038       -3.3280993840        1.1627386215
 H          0.2303301027       -4.1326802629        0.4432302350
 H         -0.4089346706       -3.4877315675        2.0091085318
 H          2.3912885377       -2.8763527756        0.8061734633
 H          1.7557470311       -2.2400580113        2.3777725672
 H          0.4725531792       -1.7778537641       -0.4078532559
