  62
        -98.94120717
 C         -1.7820028560       -0.6612319530       -0.0511554651
 C         -2.9657004627       -1.1198702303        0.5864413755
 C         -4.2385490727       -0.6901566838       -0.0058031767
 C         -4.2213347285        0.1151100188       -1.0829346509
 C         -5.4397825623        0.6728667309       -1.7582594017
 C         -5.8280352530        2.0352408279       -1.1672693399
 C         -5.8945701417        2.0493953418        0.3599524545
 H         -4.8906282824        1.8939372350        0.7618442565
 H         -6.2089898742        3.0507257665        0.6621905958
 C         -6.8489315019        1.0095271696        0.9637586805
 H         -7.5458382367        0.6593983699        0.2013706022
 H         -7.4399679345        1.4900720876        1.7462813713
 C         -6.1538947361       -0.1926898464        1.6057014442
 H         -5.3879804994        0.1565441734        2.3027248801
 H         -6.8975867339       -0.7443811492        2.1868810193
 C         -5.5046243470       -1.1862956777        0.6340712561
 H         -5.2238276908       -2.0747010391        1.2072921524
 H         -6.2294412300       -1.4834101689       -0.1267531730
 H         -5.0881231832        2.7739478068       -1.4843861173
 H         -6.7963488402        2.3265432861       -1.5784193977
 H         -6.2631903353       -0.0303982446       -1.6490160607
 H         -5.2183066114        0.7972862355       -2.8196962599
 O         -3.0733993555        0.5534441966       -1.6543345242
 C         -1.8257057258        0.1902477295       -1.1569641832
 O         -0.8782340877        0.6872226394       -1.7926955387
 O         -2.9565051837       -1.8579717406        1.6068942810
 C         -0.4611455056       -1.0943061658        0.5627691828
 C          0.4305174280        0.0955540101        0.7998921408
 C          0.2702759961        0.8673030716        1.9461224566
 C          1.0799082060        1.9637369995        2.1835566036
 C          2.0618981416        2.3194365392        1.2750983072
 C          2.2156786477        1.5651299403        0.1214149060
 C          1.4179644733        0.4531235906       -0.1051163510
 H          1.5458678063       -0.1217186168       -1.0091842575
 N          3.2344870963        1.9165718740       -0.7999643574
 S          4.7605436339        1.4243793666       -0.3169742467
 O          5.1126634620        2.1339507196        0.8860747083
 O          5.6295051521        1.6154881952       -1.4558688533
 C          4.5692188562       -0.3149018902        0.0312561693
 C          4.1386620540       -0.7023284075        1.2844827313
 C          3.8875093914       -2.0445707360        1.5198298664
 C          4.0655481592       -2.9698185548        0.5024344806
 C          4.4994587248       -2.5645133866       -0.7506317385
 C          4.7478386846       -1.2231503954       -0.9930137037
 H          5.0863278729       -0.8652496724       -1.9523603453
 H          4.6381242912       -3.2873538099       -1.5387095442
 H          3.8636145827       -4.0133540979        0.6874760187
 H          3.5456931185       -2.3621579557        2.4919516485
 H          4.0119351481        0.0471617831        2.0486258150
 H          3.0504697426        1.5635876643       -1.7292402931
 H          2.7137423678        3.1610760542        1.4445221294
 H          0.9455805149        2.5469638041        3.0819597040
 H         -0.5007592231        0.5971564697        2.6544817071
 H         -0.7456939145       -1.5075588278        1.5435661935
 C          0.2603988992       -2.2088655315       -0.1819450045
 C         -0.5061344276       -3.3540961204       -0.7701679154
 C          0.2000756352       -2.3850511175       -1.6682424468
 H          1.0950097204       -2.7161300033       -2.1750472718
 H         -0.3908946105       -1.6877090398       -2.2409490603
 H         -0.1061517483       -4.3513088070       -0.6686381707
 H         -1.5842932755       -3.3068106095       -0.7189145245
 H          1.2075660084       -2.4511318054        0.2911462654
