  62
        -98.93951156
 C          1.5562133835        0.0473241502        0.6926268093
 C          2.8356717935       -0.3576336795        1.1421385280
 C          3.9052583953       -0.4333623953        0.1321434203
 C          3.6206847486       -0.1400880301       -1.1503949634
 C          4.4796115658       -0.1768308090       -2.3975685642
 C          5.9974052501       -0.3042425967       -2.2980151766
 C          6.7028437194        0.9156504489       -1.7057859025
 H          7.7603445302        0.6725286496       -1.5819732428
 H          6.6323162391        1.7379326669       -2.4223017494
 C          6.1479393119        1.4165769061       -0.3747844164
 H          5.1152052465        1.7446390984       -0.5085034258
 H          6.7291992258        2.2943393235       -0.0796500344
 C          6.2048862321        0.4139780765        0.7757740467
 H          5.9260067297        0.9453567499        1.6896050846
 H          7.2277119995        0.0525716655        0.8984360809
 C          5.2693087413       -0.7997380279        0.6429016874
 H          5.7147646694       -1.5767906861        0.0262888889
 H          5.1187924262       -1.2205604838        1.6413631284
 H          6.2641510612       -1.2038582233       -1.7512362443
 H          6.3659348159       -0.4346562944       -3.3192095036
 H          4.0990196838       -1.0149047719       -2.9922808910
 H          4.2324401637        0.7314500206       -2.9565328102
 O          2.3654378693        0.2278493861       -1.5410395327
 C          1.3096405569        0.3346864009       -0.6488573447
 O          0.2415261793        0.7005507236       -1.1733614138
 O          3.0774710168       -0.6524581582        2.3436225558
 C          0.4252250157        0.1107642828        1.7065471570
 C         -0.4968475578       -1.0578311140        1.4561984632
 C         -0.0612514930       -2.3408021245        1.7808885729
 C         -0.8654125080       -3.4383374727        1.5440278429
 C         -2.1135369649       -3.2814714377        0.9646329658
 C         -2.5543195106       -2.0079649903        0.6300104362
 C         -1.7515658347       -0.9050521747        0.8896897240
 H         -2.1090159144        0.0754134930        0.6320581839
 N         -3.8219037405       -1.8040352725        0.0559333597
 S         -3.9170881913       -0.8954444717       -1.3581676580
 O         -5.1986407831       -1.2655197606       -1.9255055372
 O         -2.7678074925       -1.1185831761       -2.2029687254
 C         -4.0095905758        0.7930178549       -0.8047174968
 C         -2.9921938462        1.6787043247       -1.1004542205
 C         -3.0988139304        2.9859386703       -0.6496469578
 C         -4.2096820356        3.3806482761        0.0800623868
 C         -5.2231901861        2.4773699380        0.3642299613
 C         -5.1253693284        1.1698158936       -0.0827373321
 H         -5.8909647484        0.4367177409        0.1091081017
 H         -6.0846669828        2.7880917307        0.9330389977
 H         -4.2830857952        4.3984720900        0.4300582525
 H         -2.3064102054        3.6849885258       -0.8668543667
 H         -2.1265793460        1.3289549080       -1.6426963664
 H         -4.3684121961       -2.6487848272       -0.0409983742
 H         -2.7403918173       -4.1391588046        0.7707995559
 H         -0.5176913082       -4.4266473370        1.8052944341
 H          0.9196481203       -2.4626206561        2.2191385762
 H          0.9052773883       -0.0445344475        2.6830827884
 C         -0.2746892765        1.4525954623        1.7092573725
 C         -1.1899083546        1.8043781041        2.8428404994
 C          0.1318694020        2.4963242681        2.7038722315
 H          0.1445324043        3.5288699823        2.3891829086
 H          0.9169540406        2.2437244321        3.4015805282
 H         -2.0891297138        2.3594049342        2.6226844148
 H         -1.3014518221        1.0793141786        3.6346767849
 H         -0.5463075304        1.7934733159        0.7180526072
