  62
        -98.94284919
 C         -2.0992722647       -1.5109678265        0.1131806008
 C         -1.7175513221       -0.3719464279       -0.6400507549
 C         -2.7611744030        0.6520656677       -0.8208998464
 C         -3.9843700705        0.4573838155       -0.2983119648
 C         -5.1168094540        1.4395652520       -0.3675331869
 C         -5.1150242438        2.3728827496        0.8513822351
 C         -3.7525972018        3.0002879242        1.1471649659
 H         -3.8803951441        3.6622194757        2.0064294629
 H         -3.0553453446        2.2148943054        1.4481708818
 C         -3.1507010896        3.7906308851       -0.0228775504
 H         -3.9315828523        4.0361004472       -0.7437213772
 H         -2.7559350959        4.7339566720        0.3599927119
 C         -1.9992025118        3.0842788214       -0.7410232530
 H         -1.5161156025        3.8129188796       -1.3973798155
 H         -1.2579492297        2.7534628175       -0.0092973114
 C         -2.3908732761        1.8793016835       -1.6053935378
 H         -1.5188452343        1.5978216716       -2.2028167183
 H         -3.1971068634        2.1593433879       -2.2865712448
 H         -5.8524079133        3.1602258410        0.6841027167
 H         -5.4252293347        1.7983351079        1.7274196004
 H         -6.0550597189        0.8822468683       -0.3858490639
 H         -5.0337088382        2.0205467990       -1.2839658553
 O         -4.3163091730       -0.6527958064        0.4090942198
 C         -3.3815305244       -1.6442691333        0.6540898829
 O         -3.8068244821       -2.5826411752        1.3574613855
 O         -0.5794718889       -0.2029750227       -1.1459805314
 C         -1.1217740537       -2.6303414970        0.4341645835
 C          0.1833363673       -2.0400592711        0.9053838631
 C          0.2338989755       -1.4260410159        2.1535126682
 C          1.4019889800       -0.8438539867        2.6081914721
 C          2.5422844691       -0.8532353318        1.8240158151
 C          2.4956297943       -1.4475957932        0.5701315219
 C          1.3252049198       -2.0457979972        0.1217253886
 H          1.2978861828       -2.4872591751       -0.8620227712
 N          3.6387888224       -1.4441211095       -0.2447747074
 S          4.5970198031       -0.0756185469       -0.2846486857
 O          5.2637403097       -0.1250800521       -1.5675934703
 O          5.4651441696       -0.0639416119        0.8680589192
 C          3.4908667404        1.3225908654       -0.2161710066
 C          3.6463411079        2.2648831915        0.7803672612
 C          2.7868421782        3.3507871415        0.8164294111
 C          1.7924355445        3.4750810114       -0.1413558478
 C          1.6527033371        2.5220083569       -1.1380337956
 C          2.5073067749        1.4333642962       -1.1781083441
 H          2.4081780396        0.6766490079       -1.9389656018
 H          0.8746008842        2.6112198540       -1.8781109312
 H          1.1210480291        4.3190190126       -0.1118536388
 H          2.8935540798        4.0940412094        1.5902685106
 H          4.4332260935        2.1288643996        1.5047585060
 H          3.4802569816       -1.8067231380       -1.1732218011
 H          3.4637400325       -0.4109485825        2.1661005119
 H          1.4270412130       -0.3758823614        3.5806524621
 H         -0.6607826037       -1.4061099598        2.7613350205
 H         -1.5753419222       -3.1677185324        1.2826725590
 C         -0.9480088330       -3.6531104409       -0.6789296755
 C         -2.1159924787       -4.0655311854       -1.5228106947
 C         -0.9880645595       -3.2908427226       -2.1319702986
 H         -0.3199223373       -3.8079953157       -2.8058173612
 H         -1.1534898626       -2.2569743762       -2.3898486553
 H         -2.2239765112       -5.1090069232       -1.7778670104
 H         -3.0549779662       -3.5583769432       -1.3545012795
 H         -0.2592836889       -4.4429437779       -0.3932663331
