  62
        -98.94872675
 C         -1.9196217699       -1.0791761303       -0.2380496020
 C         -0.9769039494       -1.7201495790       -1.0747265124
 C         -0.0790428094       -2.6732275797       -0.4165068033
 C         -0.1801167999       -2.8757132413        0.9098686164
 C          0.6602681600       -3.8207645121        1.7253988556
 C          2.0150889797       -3.2343494523        2.1454065669
 C          3.0554521501       -3.1416377907        1.0283861074
 H          4.0193847699       -2.9529392111        1.5051301380
 H          3.1262156306       -4.1015880201        0.5153374962
 C          2.7854489303       -2.0242307895        0.0111332687
 H          3.7132738702       -1.4825479890       -0.1865973803
 H          2.0858308499       -1.3036329502        0.4429207393
 C          2.2498434509       -2.5014913580       -1.3387262821
 H          2.0381822209       -1.6200453173       -1.9497604611
 H          3.0162414312       -3.0902047772       -1.8479500026
 C          0.9699936111       -3.3420836284       -1.2533774937
 H          0.5656953215       -3.4515607072       -2.2629286140
 H          1.1958355611       -4.3318631588       -0.8570458348
 H          1.8476237893       -2.2389516929        2.5657247980
 H          2.4156027196       -3.8706799332        2.9384706562
 H          0.8170508505       -4.7475027214        1.1719577145
 H          0.0871753597       -4.0458710734        2.6275288951
 O         -1.1025573003       -2.2421982925        1.6809761369
 C         -1.9647585003       -1.3027471620        1.1381651677
 O         -2.7250236008       -0.7627405232        1.9660760781
 O         -0.8897292790       -1.5028208875       -2.3144446821
 C         -2.8348492499       -0.0268235098       -0.8368447111
 C         -2.5258711004        1.3126864495       -0.2136935793
 C         -3.4964026808        2.2259633888        0.1745546515
 C         -3.1297621313        3.4196439382        0.7734571531
 C         -1.8006884115        3.7202996282        1.0048589840
 C         -0.8194382611        2.8189615489        0.6033567732
 C         -1.1890409906        1.6416165296       -0.0234351184
 H         -0.4293518403        0.9333132901       -0.3195341489
 N          0.5402314588        3.1043233890        0.7995084441
 S          1.6850724789        1.9260870889        1.1174613831
 O          1.0877576990        0.6824959782        1.5445866113
 O          2.6044721584        2.5384284579        2.0549293442
 C          2.5450879096        1.6960679810       -0.4290443068
 C          1.9194590600        1.9199494423       -1.6384165068
 C          2.6280672605        1.6988868339       -2.8100668568
 C          3.9431035106        1.2653588042       -2.7563542968
 C          4.5626040901        1.0568058128       -1.5338986968
 C          3.8586443896        1.2722958212       -0.3601972868
 H          4.3017837293        1.1287434601        0.6121871331
 H          5.5879247902        0.7260216630       -1.4912222869
 H          4.4875349410        1.0926495755       -3.6711823468
 H          2.1453365008        1.8646515050       -3.7599364068
 H          0.8976662899        2.2615680621       -1.6625567368
 H          0.7266360583        3.9387915984        1.3350870152
 H         -1.5193304919        4.6399786076        1.4949007652
 H         -3.8926269616        4.1192061076        1.0800579037
 H         -4.5388697107        1.9983428388        0.0235811408
 H         -2.5684919495        0.0182955416       -1.9040046709
 C         -4.2879682598       -0.4322993503       -0.7144095521
 C         -5.2866132595        0.0144034608       -1.7391905820
 C         -4.8479372692       -1.4174798492       -1.6949905136
 H         -5.5428943792       -2.1621935098       -1.3372859848
 H         -4.1851993388       -1.7755318881       -2.4692586937
 H         -6.2882277697        0.2517382001       -1.4136914321
 H         -4.9286574394        0.6275115118       -2.5523396211
 H         -4.6100190302       -0.5142526516        0.3176806276
