  62
        -98.94672046
 C         -1.9919425012       -1.4554823435       -0.0852148867
 C         -1.7144356299       -0.2209570170       -0.7176621930
 C         -2.8646867687        0.6732206531       -0.9096303239
 C         -4.0875332750        0.2659474743       -0.5233095409
 C         -5.3347476800        1.0958055472       -0.6132725779
 C         -5.5637370890        1.8973275665        0.6761163307
 C         -4.3296692671        2.6598434064        1.1586675601
 H         -4.6189281545        3.2091223390        2.0572279420
 H         -3.5606044673        1.9425511444        1.4543888790
 C         -3.7424157568        3.6361236912        0.1298620738
 H         -4.4828991881        3.8512978591       -0.6413318660
 H         -3.5148129681        4.5783797020        0.6325906761
 C         -2.4474747062        3.1583685345       -0.5300681419
 H         -1.7395785786        2.8452996691        0.2420422281
 H         -2.0064090714        4.0056206828       -1.0623040414
 C         -2.5990771369        2.0121016995       -1.5383077368
 H         -3.3758816506        2.2598580342       -2.2644308245
 H         -1.6503782450        1.9076395429       -2.0734116493
 H         -6.3832821819        2.5978232889        0.5055757638
 H         -5.8678165413        1.2047482061        1.4644330902
 H         -5.2553023991        1.7701110480       -1.4637828253
 H         -6.1826037734        0.4268656371       -0.7700729379
 O         -4.3206104056       -0.9451201326        0.0452351535
 C         -3.2811619048       -1.8259354692        0.2968018641
 O         -3.6261526602       -2.8859663827        0.8568616164
 H          1.8640739771       -2.1291805986       -0.2781041647
 C          1.5305490556       -1.6851232250        0.6442308285
 C          0.1992574598       -1.7447554011        1.0232327385
 C         -0.1792859250       -1.1514789690        2.2260223438
 C          0.7474699499       -0.5056987185        3.0202079972
 C          2.0727097903       -0.4287265556        2.6267828669
 C          2.4623352982       -1.0209284362        1.4325728181
 N          3.8067458671       -0.9798475992        1.0162115044
 S          4.1959926652       -0.3217500837       -0.4746857556
 O          3.5472369273       -1.0625834861       -1.5239344819
 O          5.6430844494       -0.3121598547       -0.4997456392
 C          3.5971965727        1.3571408142       -0.3987461675
 C          4.4950051154        2.3579465874       -0.0780740939
 C          4.0372130182        3.6594490327        0.0430809411
 C          2.6916490551        3.9363572032       -0.1482456648
 C          1.8047437787        2.9194756224       -0.4641705215
 C          2.2547395019        1.6137741794       -0.5912829068
 H          1.5727099474        0.8150459053       -0.8365302306
 H          0.7563101653        3.1234203209       -0.6140022306
 H          2.3317410537        4.9486873916       -0.0518488582
 H          4.7272268209        4.4511156653        0.2873088357
 H          5.5321960453        2.0962875206        0.0570242661
 H          4.4339261443       -0.6027939306        1.7134181093
 H          2.7988847178        0.0816437335        3.2413807012
 H          0.4366930299       -0.0517420335        3.9490992935
 H         -1.2172149132       -1.2053354534        2.5270814906
 C         -0.8596622399       -2.4283830785        0.1926669608
 H         -1.2950644614       -3.2409368602        0.7925656308
 C         -0.3353606196       -3.0105349572       -1.1029187390
 C          0.3086355823       -4.3631327263       -1.1111518527
 C         -1.0491911204       -4.1752776122       -1.7169769468
 H         -1.1457822827       -4.2129566133       -2.7917459321
 H         -1.9060510929       -4.5663413451       -1.1873624001
 H          1.1484133774       -4.5279826227       -1.7696086362
 H          0.3757107272       -4.8907571841       -0.1715858402
 H          0.0587349249       -2.2572289807       -1.7761410791
 O         -0.5655625653        0.1223127702       -1.0987114876
