  62
        -98.94532414
 C          1.7927925362        1.4663038606        0.1580482931
 C          1.5432133393        0.1071300718       -0.1528968820
 C          2.5692384443       -0.8426277663        0.2967705267
 C          3.6499610218       -0.3990900746        0.9635792058
 C          4.7694913527       -1.2495137163        1.5001416859
 C          5.8457898563       -1.5949363093        0.4617239730
 C          5.4279415782       -2.6206274921       -0.5927998635
 H          6.3359663879       -2.9320104144       -1.1131490971
 H          5.0185520867       -3.5018556296       -0.0980471175
 C          4.4230728439       -2.0934485170       -1.6266657810
 H          4.4158924001       -1.0012639757       -1.6028606342
 H          4.7432686663       -2.3890148929       -2.6284153448
 C          2.9937612292       -2.6017076396       -1.4380041687
 H          2.3627327451       -2.1376711430       -2.1999168578
 H          2.9676061005       -3.6828425043       -1.5903718740
 C          2.3874146901       -2.2854392058       -0.0647049818
 H          2.8270796078       -2.9274476042        0.6981273404
 H          1.3123535104       -2.4732933637       -0.1126002654
 H          6.1642861033       -0.6736188186       -0.0315608289
 H          6.7056559584       -1.9940676158        1.0048083696
 H          4.3618641966       -2.1685419225        1.9221282153
 H          5.2379254241       -0.6761276443        2.3030058232
 O          3.8437836035        0.9157208224        1.2541224142
 C          2.9276452318        1.8762507671        0.8581495749
 O          3.2278879711        3.0415209028        1.1889727034
 O          0.5248727613       -0.2972895839       -0.7702951266
 C          0.7904911547        2.5340949252       -0.2471484535
 C         -0.5390071924        2.1872995182        0.3754384078
 C         -0.6471033476        2.2006455949        1.7636405449
 C         -1.8217454224        1.8228120750        2.3851308065
 C         -2.9116235795        1.4121340430        1.6365159204
 C         -2.8110971307        1.3899678603        0.2525483358
 C         -1.6356502860        1.7899693063       -0.3705725613
 H         -1.5754641595        1.7637592227       -1.4467867251
 N         -3.9074807791        0.9657190779       -0.5221051981
 S         -4.6139450278       -0.5097041074       -0.1683383868
 O         -5.4241499240       -0.8196608970       -1.3249800951
 O         -5.3146169587       -0.4091191017        1.0876653578
 C         -3.2788800362       -1.6829480481       -0.0279047492
 C         -2.7510374798       -1.9714644522        1.2137171761
 C         -1.7077837162       -2.8785479871        1.3015304886
 C         -1.2144208806       -3.4781205583        0.1536458359
 C         -1.7481845200       -3.1690025466       -1.0874438480
 C         -2.7880066540       -2.2598869261       -1.1817351610
 H         -3.2384224281       -2.0032047904       -2.1272409746
 H         -1.3547590604       -3.6303972556       -1.9789976044
 H         -0.4109509967       -4.1946760583        0.2272650448
 H         -1.2824771623       -3.1140267488        2.2642061959
 H         -3.1689792257       -1.4948097962        2.0851492727
 H         -3.7382122612        1.0289707920       -1.5159917968
 H         -3.8321042284        1.1020249583        2.1040251353
 H         -1.8905631129        1.8422629103        3.4624563611
 H          0.2112954915        2.5027776074        2.3487763159
 H          1.1470572539        3.4746752314        0.1944419647
 C          0.7513511380        2.6844863020       -1.7531640753
 C          0.1968284091        3.9354747785       -2.3641005586
 C          1.6704950640        3.6670294920       -2.4112679939
 H          2.1168112774        3.4011980960       -3.3578932803
 H          2.3198153489        4.2468242673       -1.7715310692
 H         -0.3672842755        3.8583592860       -3.2813692413
 H         -0.1577825064        4.7031517492       -1.6931021220
 H          0.5816733331        1.7453613676       -2.2670430158
