  62
        -98.94258527
 C          1.4472353664        0.9672064487       -0.4377101983
 C          2.8030718047        1.3546540388       -0.5880735478
 C          3.7874990964        0.2668850808       -0.6127498455
 C          3.3753384906       -1.0072479628       -0.4858871417
 C          4.2506104855       -2.2304111821       -0.5310452638
 C          4.9110922935       -2.5765280920        0.8102404548
 C          6.0438830392       -1.6420969157        1.2365992535
 H          6.5563098760       -2.1202000735        2.0738678334
 H          6.7648409651       -1.5516025571        0.4234276232
 C          5.5807802229       -0.2454940683        1.6744354076
 H          4.5093176815       -0.2670432081        1.8865928346
 H          6.0849838316        0.0309987812        2.6032355979
 C          5.8618752851        0.8633619703        0.6602069939
 H          5.4616822109        1.8001719604        1.0565526568
 H          6.9406925375        0.9840098533        0.5384096049
 C          5.2377636822        0.6296757937       -0.7219120578
 H          5.7856413338       -0.1471895591       -1.2551866288
 H          5.3070009338        1.5603454948       -1.2907065446
 H          4.1410999044       -2.5925978422        1.5848838984
 H          5.3165623756       -3.5871812280        0.7228567035
 H          5.0191471563       -2.1027661313       -1.2940164377
 H          3.6060376812       -3.0626140610       -0.8216606671
 O          2.0696342246       -1.3373212638       -0.3130077569
 C          1.0738022283       -0.3662347689       -0.2557569523
 O         -0.0604129083       -0.8269665235       -0.0434903585
 O          3.1736648427        2.5540257687       -0.6982611329
 C          0.3977060711        2.0641965589       -0.4232211679
 C         -0.5805069717        1.8348500297        0.6995082680
 C         -0.1372781366        1.9629902134        2.0132702048
 C         -0.9919955122        1.7295232027        3.0728290287
 C         -2.3049208650        1.3570963235        2.8443359825
 C         -2.7576067777        1.2294371740        1.5366172131
 C         -1.8998973133        1.4765868142        0.4740864188
 H         -2.2735115193        1.3634203438       -0.5290197187
 N         -4.0881921537        0.8734793246        1.2802618632
 S         -4.5321607360        0.0132098796       -0.0768293375
 O         -4.4601345316        0.8560403576       -1.2450264235
 O         -5.8541657034       -0.4825321447        0.2501174629
 C         -3.4159576646       -1.3674389254       -0.2329435387
 C         -3.2036050039       -2.1756631139        0.8647475365
 C         -2.3735131710       -3.2755542849        0.7344588960
 C         -1.7780887646       -3.5512058048       -0.4857468127
 C         -2.0062763341       -2.7331184139       -1.5791446177
 C         -2.8318985942       -1.6288145791       -1.4532842198
 H         -3.0246451780       -0.9596752798       -2.2767961976
 H         -1.5343394609       -2.9434858563       -2.5262969317
 H         -1.1241687209       -4.4038533556       -0.5830045144
 H         -2.1862399133       -3.9107632719        1.5857096004
 H         -3.6825182428       -1.9409254060        1.8017991600
 H         -4.6273571841        0.6053083059        2.0896953917
 H         -2.9737199079        1.1665961415        3.6698124648
 H         -0.6334877315        1.8306791174        4.0862238877
 H          0.8930032297        2.2399117925        2.1919925455
 H          0.9625861849        2.9858382268       -0.2043849904
 C         -0.2846862158        2.2808875888       -1.7656492798
 C          0.4546523487        2.0742907640       -3.0525231010
 C         -0.6572635161        1.1462374957       -2.6701054585
 H         -1.5929497747        1.2122128016       -3.2070885629
 H         -0.4082566469        0.1470655934       -2.3475918078
 H          0.2897434508        2.7743242614       -3.8577503289
 H          1.4689157517        1.7074157354       -2.9927247254
 H         -0.9736515594        3.1202558668       -1.7370315742
