  62
        -98.94122059
 C          2.2336632978        0.9303575379       -0.0548256024
 C          2.9413037110        0.3903095702        1.0513470018
 C          3.7863358802       -0.7796964373        0.7837734981
 C          3.8211439870       -1.2909220640       -0.4598256116
 C          4.6768586087       -2.4458066019       -0.8909680318
 C          6.0388848612       -1.9646004744       -1.4107973225
 C          6.7400247077       -0.9747632357       -0.4804365333
 H          7.7026338757       -0.7288560571       -0.9338382015
 H          6.1582870036       -0.0510364762       -0.4397510487
 C          6.9643698533       -1.4941298781        0.9465984346
 H          7.9841491491       -1.2503487712        1.2516025191
 H          6.8720494674       -2.5806364267        0.9641123430
 C          6.0295307565       -0.8897603954        1.9960463396
 H          6.0483589713        0.2002608228        1.9195368971
 H          6.4119711829       -1.1550660305        2.9851906118
 C          4.5678507252       -1.3511254940        1.9331826072
 H          4.5256437001       -2.4422944420        1.9218147171
 H          4.0676635184       -0.9978172253        2.8396206456
 H          6.6766128769       -2.8368613626       -1.5649169224
 H          5.8879580317       -1.4786034637       -2.3775324247
 H          4.8148231365       -3.1216250477       -0.0490834286
 H          4.1589663973       -2.9781959187       -1.6906995531
 O          3.1042449727       -0.7727900304       -1.4873185775
 C          2.2988919593        0.3482965166       -1.3208868670
 O          1.7159733767        0.6964474009       -2.3656534554
 O          2.8744955075        0.8768967308        2.2116972224
 C          1.3910177365        2.1654442560        0.2181735969
 C         -0.0391279207        1.7869162648        0.5068429975
 C         -0.6612805567        2.1774718677        1.6863314977
 C         -1.9681215072        1.8043472375        1.9497012475
 C         -2.6804252742        1.0396028073        1.0434302742
 C         -2.0651609210        0.6381046825       -0.1352710739
 C         -0.7553783670        1.0121480505       -0.3959246319
 H         -0.2797976845        0.6953738690       -1.3128845677
 N         -2.7812496083       -0.1349670513       -1.0689330046
 S         -3.4863801374       -1.5541952270       -0.5086527655
 O         -2.7650630074       -2.0915123490        0.6228223268
 O         -3.5967262030       -2.4119412777       -1.6684103310
 C         -5.1181488102       -1.0438677181       -0.0102462238
 C         -5.5563706727       -1.2906854933        1.2759795969
 C         -6.8335628435       -0.8897398953        1.6369041468
 C         -7.6450475412       -0.2535737371        0.7101382053
 C         -7.1905215705       -0.0152803305       -0.5785883973
 C         -5.9156427233       -0.4145800967       -0.9462469770
 H         -5.5251069537       -0.2527530206       -1.9370505932
 H         -7.8243183056        0.4799090755       -1.2964631770
 H         -8.6377872086        0.0584182824        0.9937375937
 H         -7.1885502731       -1.0743927309        2.6380433319
 H         -4.8874697281       -1.7832119914        1.9637939190
 H         -2.2554176353       -0.3169506125       -1.9126729002
 H         -3.6978301687        0.7452885966        1.2430067410
 H         -2.4376563275        2.1120576227        2.8714056905
 H         -0.1073512448        2.7618497524        2.4062933875
 H          1.8122487214        2.5842335929        1.1457101564
 C          1.5268094065        3.2309581002       -0.8619133262
 C          0.4107355062        3.6538859092       -1.7650932085
 C          0.8743700631        4.5690235756       -0.6745172938
 H          1.4269552829        5.4577157189       -0.9386998488
 H          0.2287703767        4.6860312954        0.1829165973
 H          0.6620496061        3.8905505084       -2.7878460015
 H         -0.5495343154        3.1757479974       -1.6548619721
 H          2.5194434575        3.2326309107       -1.3013621919
