  62
        -98.93868465
 C         -1.0252408255       -1.5680037733        0.6485514021
 C         -2.0783239238       -1.5214107904       -0.2974780539
 C         -3.1327268277       -0.5237410091       -0.0439807207
 C         -3.0379124169        0.2784959063        1.0307438897
 C         -3.9790603680        1.4003617731        1.3672371729
 C         -3.7043847337        2.6117358923        0.4529631307
 C         -4.8585567596        2.9655821971       -0.4839675949
 H         -5.6530917314        3.4445150854        0.0920652058
 H         -4.4847813012        3.6980910625       -1.2023476217
 C         -5.4735006116        1.7887590398       -1.2474880912
 H         -6.0698526836        2.2112218900       -2.0589686057
 H         -6.1681835312        1.2525185841       -0.5991285023
 C         -4.4791118682        0.7814859156       -1.8397577340
 H         -4.8560903689        0.4686008804       -2.8155886065
 H         -3.5091619525        1.2487963484       -2.0098323241
 C         -4.2896743824       -0.4989553308       -1.0050543406
 H         -5.2139702467       -0.7209388037       -0.4641054977
 H         -4.1010480169       -1.3328037314       -1.6876340266
 H         -2.8125783747        2.3966042456       -0.1383405102
 H         -3.4799829747        3.4865447874        1.0653315896
 H         -5.0067062291        1.0614759290        1.2547208733
 H         -3.8135410634        1.6636432597        2.4122927637
 O         -2.0070494806        0.2084128294        1.9135479699
 C         -0.9881516781       -0.7141852003        1.7527665188
 O         -0.1205924079       -0.6761592348        2.6493925878
 H          2.2627248041       -0.9271644796        0.8042112229
 C          2.1046189275       -1.1831797955       -0.2327150536
 C          1.0613346326       -2.0325882043       -0.5800989853
 C          0.8822303280       -2.3605800790       -1.9191342969
 C          1.7311067537       -1.8453067099       -2.8822144906
 C          2.7661963500       -0.9963921440       -2.5342692875
 C          2.9553093354       -0.6629382952       -1.1972906467
 N          4.0177570313        0.1708561788       -0.8209280058
 S          3.9029625887        1.2367857226        0.4574039375
 O          5.0224426916        2.1330352755        0.2605641753
 O          3.8810373115        0.5194438064        1.7058956501
 C          2.3834741905        2.1348485394        0.2053987472
 C          2.3455673766        3.0477206608       -0.8317316511
 C          1.1812162253        3.7621514871       -1.0568967830
 C          0.0773136854        3.5547012579       -0.2429717145
 C          0.1326020864        2.6381167847        0.7946051731
 C          1.2945435370        1.9165574347        1.0226653463
 H          1.3555425783        1.1928451047        1.8208805262
 H         -0.7205338371        2.4692865748        1.4329561957
 H         -0.8291971634        4.1145326725       -0.4131270159
 H          1.1363925567        4.4791477031       -1.8607533185
 H          3.2308359346        3.1971585623       -1.4281996394
 H          4.5425042528        0.5628924951       -1.5885826169
 H          3.4289647906       -0.5984696198       -3.2873851594
 H          1.5820794225       -2.1056389572       -3.9191215299
 H          0.0623976311       -2.9989360263       -2.2038829467
 C          0.1432488948       -2.5329042786        0.5098118590
 H          0.6931554926       -2.4712134498        1.4589807143
 C         -0.3000310469       -3.9670700364        0.3058700360
 C          0.6922088074       -5.0687847547        0.5197428854
 C         -0.4273043392       -4.8679132050        1.4955786900
 H         -1.2324908103       -5.5871047544        1.5135381420
 H         -0.1914380946       -4.4537703838        2.4655185235
 H          1.6887301070       -4.7886850342        0.8277706361
 H          0.6584098429       -5.9281993906       -0.1319964172
 H         -1.0296099646       -4.0889889773       -0.4834499361
 O         -2.1566167093       -2.2721470648       -1.3038985312
