  62
        -98.93740478
 C         -1.6536559399       -1.0406853243       -0.0330318532
 C         -2.8564128684       -1.1090311783        0.7196910844
 C         -4.0488064678       -0.4909599337        0.1236565085
 C         -3.9472243262        0.0853159183       -1.0873549144
 C         -5.0435561579        0.8250355440       -1.7995331148
 C         -5.2135524253        2.2302300104       -1.1874465347
 C         -6.5534169747        2.4545920372       -0.4861351977
 H         -6.4727590326        3.3832031639        0.0830915263
 H         -7.3294706866        2.5976477674       -1.2410628508
 C         -7.0129694194        1.3335223731        0.4510294982
 H         -7.4452655217        0.5202524106       -0.1338377116
 H         -7.8216198877        1.7415238083        1.0611878831
 C         -5.9394378527        0.7530409155        1.3808075874
 H         -5.1405291889        1.4765438487        1.5457325111
 H         -6.3995524037        0.5618889386        2.3524232897
 C         -5.3309695829       -0.5789904872        0.9040043514
 H         -5.0829576680       -1.1831659987        1.7816428369
 H         -6.0744012032       -1.1324866331        0.3236073382
 H         -4.3986719535        2.3966574074       -0.4794194356
 H         -5.1072292630        2.9835790220       -1.9696095662
 H         -5.9719775140        0.2624437022       -1.7310766025
 H         -4.7570247357        0.9000497951       -2.8487534148
 O         -2.7835290315        0.1266550385       -1.7824780145
 C         -1.6116702731       -0.4237215356       -1.2828309684
 O         -0.6379205028       -0.2834321401       -2.0508948625
 O         -2.9281796393       -1.6744442582        1.8435551838
 C         -0.4313359854       -1.6947449911        0.5890247196
 C          0.4951176629       -0.6908860447        1.2313915563
 C          0.8584179116       -0.8022039676        2.5682140748
 C          1.7446911780        0.0963651527        3.1377474504
 C          2.2839713664        1.1264306934        2.3876410371
 C          1.9186124586        1.2499950281        1.0541089889
 C          1.0393604169        0.3430031032        0.4828026303
 H          0.7705037097        0.4417324907       -0.5584518118
 N          2.4768174341        2.2890778328        0.2715222629
 S          4.1111482665        2.0912032399       -0.0515502865
 O          4.8505571876        2.2852508114        1.1696957857
 O          4.4160629947        2.9974978948       -1.1351327321
 C          4.2478773179        0.3973278810       -0.5908805049
 C          3.9936797432        0.1061837011       -1.9159472911
 C          4.0125740522       -1.2164880922       -2.3269024918
 C          4.2720804164       -2.2196757183       -1.4061075657
 C          4.5173119828       -1.9114512887       -0.0769777943
 C          4.5039446806       -0.5901616212        0.3389243936
 H          4.6916980778       -0.3077284907        1.3617143247
 H          4.7131371805       -2.6947887219        0.6372415082
 H          4.2850774348       -3.2486943403       -1.7302385402
 H          3.8169330621       -1.4596073549       -3.3590978225
 H          3.7968801652        0.9153734908       -2.6013119725
 H          1.9880066645        2.4080044957       -0.6058285066
 H          2.9877345957        1.8271114944        2.8069613951
 H          2.0179272948       -0.0051959291        4.1769258033
 H          0.4343565996       -1.5959122501        3.1653862383
 H         -0.8306326564       -2.3385997256        1.3839231885
 C          0.3485544306       -2.5609468658       -0.3825507593
 C          1.1486549164       -3.7095793492        0.1500632560
 C         -0.1031217183       -3.9670236171       -0.6327130532
 H         -0.0186843417       -4.3634461219       -1.6332286742
 H         -0.9780356542       -4.3118232263       -0.1007134314
 H          2.0974561892       -3.9304952623       -0.3119026657
 H          1.1235092730       -3.8857709259        1.2144836365
 H          0.7521769054       -2.0095087917       -1.2218813208
