  62
        -98.94390213
 C         -1.6798360061       -1.4443701984        0.5305093964
 C         -2.6138480929       -1.0200070931       -0.4464541969
 C         -3.4616748284        0.1219083841       -0.0649339924
 C         -3.2545634887        0.7431859238        1.1094819580
 C         -4.0168747367        1.9410606623        1.5963475628
 C         -3.3508124486        3.2546252168        1.1639544737
 C         -2.9893957321        3.3043877890       -0.3201437701
 H         -2.5538009890        4.2870823589       -0.5134238984
 H         -2.2204491420        2.5564924274       -0.5252374198
 C         -4.1723820508        3.0778636921       -1.2712000566
 H         -5.1124954043        3.2316594548       -0.7400554365
 H         -4.1275008068        3.8203532384       -2.0706163489
 C         -4.1868695494        1.7024638791       -1.9400419350
 H         -3.2125182109        1.5031049265       -2.3927222917
 H         -4.9244176926        1.7241041163       -2.7467269997
 C         -4.5446715528        0.5230252449       -1.0272822365
 H         -5.4708013771        0.7412349711       -0.4911570945
 H         -4.7152191310       -0.3484948718       -1.6659065265
 H         -4.0266807229        4.0773537241        1.4042387795
 H         -2.4363229874        3.3897127609        1.7463009777
 H         -5.0333395070        1.8949983605        1.2096497716
 H         -4.0528634095        1.9038067974        2.6866335932
 O         -2.2831933848        0.3654629059        1.9806018233
 C         -1.4884860962       -0.7363989665        1.7207995606
 O         -0.6527273559       -0.9847659794        2.6139840695
 H          1.6002797890       -2.0444518686        1.4381388714
 C          1.6122150071       -1.8615881845        0.3720259307
 C          0.4786452913       -2.1448978434       -0.3762862204
 C          0.4920394887       -1.8694176972       -1.7393189785
 C          1.6199922338       -1.3294745746       -2.3314918434
 C          2.7468782777       -1.0397607570       -1.5808756779
 C          2.7360238280       -1.3015606206       -0.2174665685
 N          3.8567124112       -0.9658014715        0.5658613205
 S          4.4448056058        0.5903964689        0.3784853287
 O          5.3543370798        0.6262173379       -0.7398342974
 O          5.0151952876        0.9449688863        1.6593586393
 C          3.0236873622        1.6111968401        0.0185320441
 C          3.0520041615        2.4368532293       -1.0870170780
 C          1.9494893911        3.2291338012       -1.3627872135
 C          0.8375009548        3.1753736376       -0.5371979779
 C          0.8218420048        2.3366486380        0.5664763537
 C          1.9253168443        1.5500457508        0.8535946397
 H          1.9250203962        0.8947172323        1.7106058194
 H         -0.0460148298        2.2793702924        1.2055784096
 H         -0.0230001689        3.7883559607       -0.7533009647
 H          1.9575779197        3.8816612788       -2.2208400449
 H          3.9331415343        2.4383527870       -1.7078577257
 H          3.7385582783       -1.1820374440        1.5455244928
 H          3.6282122185       -0.6058966232       -2.0254412760
 H          1.6197395769       -1.1204725621       -3.3903426780
 H         -0.3969733296       -2.0527309826       -2.3221792201
 C         -0.7560774714       -2.6396644929        0.3358439222
 H         -0.4535451249       -2.9486767006        1.3457831789
 C         -1.4037297416       -3.8247928553       -0.3462950942
 C         -0.7501612089       -5.1674351767       -0.2243526925
 C         -2.0369430409       -4.8920335991        0.4926989186
 H         -2.9405855919       -5.3606117120        0.1330044999
 H         -2.0070592751       -4.7718249353        1.5662244379
 H          0.1535571260       -5.2331642000        0.3630823369
 H         -0.7675348007       -5.8278418140       -1.0775351186
 H         -1.8884713212       -3.5832504792       -1.2816603103
 O         -2.7600563533       -1.5534559228       -1.5759897663
