  62
        -98.93441174
 C         -2.0632860188       -1.0457476044        0.2590587336
 C         -2.9430472242       -0.4333903672        1.1865442053
 C         -3.7417939503        0.6961669417        0.6882056928
 C         -3.5520240556        1.1226503083       -0.5733250874
 C         -4.3346587557        2.2090144468       -1.2547289744
 C         -5.7168794853        1.6742766000       -1.6811066447
 C         -6.8956083305        2.3272847892       -0.9588655213
 H         -7.0575871270        3.3241248718       -1.3742752729
 H         -7.7837045416        1.7306478378       -1.1774766052
 C         -6.7521875035        2.4704120467        0.5594429170
 H         -7.7455506156        2.6967933894        0.9525064483
 H         -6.1233572860        3.3319632794        0.7891528284
 C         -6.1971751359        1.2464252419        1.2993672466
 H         -6.3789830464        0.3363307125        0.7272935889
 H         -6.7400900002        1.1438179474        2.2410649077
 C         -4.7010538546        1.3359341163        1.6537285596
 H         -4.4234182404        2.3831736286        1.8038886140
 H         -4.5336744543        0.8137158933        2.6005542821
 H         -5.7345734482        0.5959732544       -1.5090363780
 H         -5.8483228404        1.8223601018       -2.7539918352
 H         -3.7611026929        2.5225441178       -2.1274371601
 H         -4.4422887821        3.0599713789       -0.5854908376
 O         -2.6524159098        0.5521592493       -1.4148908970
 C         -1.8828010545       -0.5397597398       -1.0294064511
 O         -1.1018654544       -0.9394752295       -1.9114206129
 O         -3.0488348947       -0.8107207737        2.3849264866
 C         -1.2290042358       -2.2170075545        0.7484285378
 C          0.2200768820       -1.9934956693        0.3954643093
 C          0.9677898340       -2.8533605997       -0.3967117954
 C          2.2866713044       -2.5582961379       -0.6962665005
 C          2.8876894864       -1.4111191739       -0.2126020560
 C          2.1474008192       -0.5416302241        0.5780284761
 C          0.8295777709       -0.8426482867        0.8813473236
 H          0.2498843280       -0.1597526462        1.4918695493
 N          2.7500229994        0.6256576880        1.0830289195
 S          3.5412977780        1.6363228131       -0.0016271938
 O          3.5177797271        2.9424194677        0.6224139545
 O          2.9781128537        1.5490272440       -1.3288970233
 C          5.2142802824        1.0264995755       -0.0006321672
 C          5.8735865746        0.9349447073        1.2096631340
 C          7.1784584929        0.4690452868        1.2265444665
 C          7.7992905516        0.1079310835        0.0398917876
 C          7.1247853508        0.2089789785       -1.1671992409
 C          5.8186898826        0.6733689878       -1.1910916410
 H          5.2515983789        0.7629925929       -2.1041426729
 H          7.6086232548       -0.0720233223       -2.0888233528
 H          8.8149016021       -0.2547667980        0.0557079242
 H          7.7061917161        0.3888787347        2.1631751676
 H          5.3557251265        1.2287858276        2.1072895068
 H          2.1382001462        1.1671262187        1.6771290761
 H          3.9118745136       -1.1753638011       -0.4515052043
 H          2.8541751827       -3.2308776128       -1.3212158404
 H          0.5105235660       -3.7398883995       -0.8038808994
 H         -1.3181258676       -2.1701599485        1.8470915975
 C         -1.7535039100       -3.5830538044        0.3341869252
 C         -3.2127321270       -3.7991096243        0.0691646132
 C         -2.2272483952       -3.8787322396       -1.0560593671
 H         -2.0081480985       -4.8502608652       -1.4746058853
 H         -2.1968393062       -3.0766622397       -1.7764383913
 H         -3.6694757970       -4.7114755110        0.4221604284
 H         -3.8625954758       -2.9373473825        0.1193170431
 H         -1.2376720389       -4.3856650370        0.8522603195
