  62
        -98.94544645
 C         -1.6708391427       -0.9220602441        0.1239624178
 C         -2.6831474904       -0.6042604763        1.0595075048
 C         -3.3644228986        0.6822483704        0.8589616125
 C         -2.9737257531        1.4833210153       -0.1492814659
 C         -3.6122421992        2.7961068962       -0.4972260744
 C         -4.7371719351        2.6103630249       -1.5252509695
 C         -5.7293198824        1.5052265198       -1.1629626341
 H         -6.4939363284        1.4866647257       -1.9425081276
 H         -5.2165132236        0.5411298540       -1.1929143525
 C         -6.4007078611        1.6782381752        0.2066294875
 H         -7.4691285179        1.4786286116        0.1008737286
 H         -6.2965448466        2.7104701632        0.5432128945
 C         -5.8777577782        0.7363367199        1.2928167881
 H         -6.5593630143        0.7892135040        2.1460009072
 H         -5.8946200446       -0.2926622802        0.9246284722
 C         -4.4675478033        1.0382802380        1.8153569902
 H         -4.4011383830        2.0880212694        2.1095245064
 H         -4.3037603779        0.4222357286        2.7047599639
 H         -4.2875843275        2.3637541288       -2.4897891958
 H         -5.2679788743        3.5583005537       -1.6303038559
 H         -4.0053240977        3.2552190516        0.4079434122
 H         -2.8482246162        3.4497152712       -0.9218821353
 O         -1.9693926647        1.1624650217       -1.0039446497
 C         -1.3039527999       -0.0540787043       -0.9051662464
 O         -0.4233664572       -0.2268262300       -1.7652525799
 H          0.2916916703       -0.2877547173        1.5939184595
 C          1.0077699195       -0.9608876771        1.1381585125
 C          0.5474019348       -2.0391450719        0.3936043233
 C          1.4838386080       -2.8911269195       -0.1791046828
 C          2.8391168874       -2.6632673291       -0.0115511741
 C          3.2921740136       -1.5800908186        0.7181455861
 C          2.3641226481       -0.7187454827        1.2897232036
 N          2.8112607500        0.4068855097        2.0023511726
 S          4.0489032332        1.3081760133        1.3220568130
 O          5.3183834787        0.7502498326        1.7196898823
 O          3.8049824557        2.6684424358        1.7514271146
 C          3.8628665561        1.1602174313       -0.4468572206
 C          2.6333502081        1.4329017960       -1.0120129303
 C          2.4762400009        1.2906504940       -2.3805605034
 C          3.5517493798        0.8916520197       -3.1591065958
 C          4.7847074250        0.6351347755       -2.5795900578
 C          4.9431319034        0.7640179188       -1.2093170154
 H          5.8785095285        0.5589682622       -0.7142186284
 H          5.6188411414        0.3265309671       -3.1889378759
 H          3.4233226488        0.7771295895       -4.2238569497
 H          1.5069371224        1.4633857789       -2.8196419665
 H          1.8062528893        1.7373869560       -0.3898771489
 H          2.0671783177        1.0056357990        2.3290623477
 H          4.3436949367       -1.3861007264        0.8558495815
 H          3.5534153857       -3.3354313597       -0.4612820008
 H          1.1516871376       -3.7350995146       -0.7607374234
 C         -0.9410640965       -2.2456515895        0.2511003678
 H         -1.3134366466       -2.6961918733        1.1840033503
 C         -1.3077581734       -3.1536427837       -0.9059440202
 C         -1.4010935704       -4.6368033456       -0.7118826094
 C         -2.6471210565       -3.8256377980       -0.8969439685
 H         -3.1889626477       -3.9114232533       -1.8269343064
 H         -3.2801229065       -3.6551123264       -0.0380215887
 H         -1.0890977098       -5.2833427378       -1.5182290068
 H         -1.1953740464       -5.0275718174        0.2732557272
 H         -0.9409988900       -2.7814466451       -1.8559980635
 O         -2.9978056079       -1.3575291386        2.0211755653
