  62
        -98.93989045
 C         -2.6378990794       -0.2138813314        0.5539377453
 C         -2.1720980060        0.2375434797       -0.7072078601
 C         -1.9999835816        1.6921177260       -0.8462572262
 C         -2.2610527567        2.4947717047        0.1999341805
 C         -2.1298296025        3.9899181959        0.1939749811
 C         -0.7444708415        4.4462448341        0.6686509263
 C          0.4207914429        3.7375078891       -0.0226105496
 H          1.3410068015        4.1955550199        0.3481262749
 H          0.4462949241        2.6881620424        0.2800381289
 C          0.3997370751        3.8147499927       -1.5551987507
 H         -0.2407879333        4.6368430715       -1.8791502686
 H          1.4113252108        4.0314111840       -1.9051749677
 C         -0.0392228281        2.5234362566       -2.2497522138
 H          0.2281147388        2.5977523692       -3.3079392315
 H          0.5148296586        1.6758335047       -1.8345180118
 C         -1.5387229489        2.2052689873       -2.1805772363
 H         -2.1158538089        3.0843316075       -2.4779876295
 H         -1.7393410053        1.4020010894       -2.8959376543
 H         -0.6652102539        5.5226544291        0.5027018978
 H         -0.6670911590        4.2604186155        1.7423852838
 H         -2.3176895726        4.3567460711       -0.8134399859
 H         -2.8856197244        4.3996381501        0.8669691639
 O         -2.6649344806        2.0229067876        1.4079474640
 C         -2.8293135753        0.6645756017        1.6218426497
 O         -3.1475477544        0.3669152359        2.7920727955
 O         -1.9303444463       -0.5223102611       -1.6802556808
 C         -2.8148958720       -1.6956343220        0.8533617262
 C         -1.5965308647       -2.4276661215        0.3485271502
 C         -1.6207122918       -3.4577076297       -0.5815380913
 C         -0.4396211116       -4.0024782586       -1.0568783751
 C          0.7865639742       -3.5275398792       -0.6263864959
 C          0.8168464063       -2.5177340383        0.3223767646
 C         -0.3628645418       -1.9913229872        0.8155382630
 H         -0.3264755086       -1.1808167376        1.5352380189
 N          2.0748846243       -1.9650644315        0.7223528737
 S          2.3061842405       -0.4855507974       -0.0750776313
 O          1.5377209161        0.5568533859        0.5739217915
 O          2.0732478300       -0.6922445155       -1.4806773653
 C          4.0467856929       -0.2163660642        0.2051608630
 C          4.9332646234       -1.1108199159       -0.3633328435
 C          6.2902111716       -0.9416361245       -0.1421133613
 C          6.7358490344        0.1144838607        0.6394525011
 C          5.8341603276        1.0044559016        1.2019972858
 C          4.4744067168        0.8385979538        0.9862311257
 H          3.7363352689        1.5055799214        1.4026145446
 H          6.1825600043        1.8252394549        1.8081166716
 H          7.7927266155        0.2452256262        0.8103758532
 H          6.9947402340       -1.6312636597       -0.5782721555
 H          4.5387601579       -1.9106558685       -0.9674159158
 H          2.0781889836       -1.7563124261        1.7139001808
 H          1.7117992510       -3.9126265204       -1.0223719921
 H         -0.4764219977       -4.7905964486       -1.7935808091
 H         -2.5649705944       -3.8066125861       -0.9670268479
 H         -2.8187933422       -1.7622639017        1.9544744228
 C         -4.1310964142       -2.2907111130        0.3792762023
 C         -5.3586307192       -1.4388135043        0.2588163500
 C         -4.7092723333       -1.9956991697       -0.9706201135
 H         -5.2123165451       -2.7945678416       -1.4956900190
 H         -4.1593526752       -1.3279295529       -1.6140735728
 H         -6.3035256834       -1.8527701401        0.5772142751
 H         -5.2534286396       -0.3823231657        0.4602197004
 H         -4.2808708906       -3.2945434685        0.7649608325
