  62
        -98.94019162
 C         -1.7780100166       -1.0005384122       -0.9133850084
 C         -1.7216683157        0.2445946512       -0.2386592039
 C         -2.9942999011        0.9796226399       -0.1466169313
 C         -4.1073338050        0.4543111911       -0.6876738543
 C         -5.4724770876        1.0736723397       -0.6187211329
 C         -6.2451771071        0.5769549987        0.6112451425
 C         -5.4492849598        0.6557020250        1.9142145739
 H         -6.1045429960        0.3089046823        2.7163246928
 H         -4.6096638838       -0.0414558394        1.8623557552
 C         -4.9230307945        2.0572569206        2.2536361411
 H         -5.4716070683        2.8069089541        1.6821228035
 H         -5.1114776718        2.2545483569        3.3110860994
 C         -3.4217727907        2.2440549709        2.0262062351
 H         -2.8731148886        1.4382002331        2.5204816560
 H         -3.1217234702        3.1827268754        2.4995307422
 C         -2.9713175084        2.3051922140        0.5612904786
 H         -3.5700880763        3.0418022228        0.0219303536
 H         -1.9278996385        2.6327367034        0.5502253648
 H         -7.1599718430        1.1650510239        0.7050863314
 H         -6.5274506537       -0.4653977245        0.4451695204
 H         -5.3739315869        2.1569257417       -0.5860059874
 H         -6.0227023438        0.7948911524       -1.5190716331
 O         -4.1237799215       -0.7455530669       -1.3231136191
 C         -2.9728033796       -1.5085988140       -1.4304170912
 O         -3.1402745719       -2.6076660778       -1.9961699537
 H          1.9824482136       -1.0015161533       -0.4463051483
 C          1.4678870262       -1.4224064219        0.3998959483
 C          0.1906449565       -1.9367049601        0.2535736033
 C         -0.4436764555       -2.4824264418        1.3664708769
 C          0.1851510955       -2.5000976388        2.5963211961
 C          1.4538239734       -1.9674477748        2.7441922180
 C          2.0936202681       -1.4176160953        1.6390983137
 N          3.3495981712       -0.8243720670        1.7776448053
 S          4.3905836692       -0.4115601040        0.5566127722
 O          4.3678252976       -1.3862198003       -0.5106287211
 O          5.6679152370       -0.2379624941        1.2156662943
 C          3.8708493518        1.1747735065       -0.0814225637
 C          4.8179268703        1.8544978872       -0.8258294493
 C          4.4973964358        3.0856749211       -1.3721459346
 C          3.2336283463        3.6192970876       -1.1680556007
 C          2.2966292306        2.9268267438       -0.4194858628
 C          2.6103545143        1.6933510167        0.1336286553
 H          1.8672072846        1.1529818165        0.6969816421
 H          1.3081260220        3.3283033941       -0.2622654458
 H          2.9785864130        4.5766508644       -1.5947138841
 H          5.2291542362        3.6224570767       -1.9543275575
 H          5.7891294304        1.4043926214       -0.9566850102
 H          3.7745185680       -0.8445013820        2.6898053205
 H          1.9394383374       -1.9646577878        3.7078923105
 H         -0.3183237994       -2.9253361162        3.4517964772
 H         -1.4434024830       -2.8813023282        1.2551124032
 C         -0.5521512808       -1.8876552765       -1.0579774831
 H         -0.9496290020       -2.8955530458       -1.2629425487
 C          0.3429826759       -1.5246389232       -2.2335766239
 C         -0.2276580826       -0.9389301304       -3.4893285773
 C          0.6463201178       -0.1047273257       -2.6037085243
 H          1.6461570704        0.1315071617       -2.9397972904
 H          0.1905430525        0.6749243404       -2.0149142553
 H          0.1661925417       -1.2757144290       -4.4364467525
 H         -1.2878978805       -0.7313884187       -3.5065700420
 H          1.1505161326       -2.2402984213       -2.3612545198
 O         -0.6783216421        0.7322616965        0.2643523361
