  62
        -98.94294894
 C          2.0517625155        0.9350438928        0.6507587570
 C          2.9082359010        1.0477480724       -0.4718051150
 C          4.2618768156        0.4954067110       -0.3030697486
 C          4.6045332270       -0.0864173296        0.8597455818
 C          5.9290761330       -0.7334270706        1.1406714598
 C          5.9069099441       -2.2271872384        0.7876593341
 C          5.3435305054       -2.5260886870       -0.6017170305
 H          5.4058608965       -3.6061671636       -0.7519688802
 H          4.2837793580       -2.2607532535       -0.6218392864
 C          6.0676897165       -1.8076756885       -1.7488697587
 H          6.2354630108       -2.5217127709       -2.5579446722
 H          7.0466730459       -1.4649003543       -1.4117701841
 C          5.2962816016       -0.6297822299       -2.3468311765
 H          5.7896186319       -0.3386822702       -3.2780301725
 H          4.2814149281       -0.9471684709       -2.5994473708
 C          5.2048868670        0.6228701272       -1.4665379470
 H          6.2023672843        0.9059964793       -1.1245761331
 H          4.8099012595        1.4339009864       -2.0851136737
 H          5.2922075047       -2.7486340155        1.5251669125
 H          6.9251012659       -2.6139123655        0.8603119053
 H          6.7034842733       -0.2261565214        0.5684965691
 H          6.1460964776       -0.6241934715        2.2046792813
 O          3.7511759789       -0.1917621543        1.9102782054
 C          2.4632934418        0.3056390974        1.8295933081
 O          1.7852276684        0.1364741787        2.8641512547
 H         -1.1241772421       -0.2315720820        1.7871572534
 C         -1.1462037310       -0.3062256757        0.7078428706
 C         -0.2926208004        0.4882536442       -0.0448716566
 C         -0.3154489072        0.3666779905       -1.4299027766
 C         -1.1702310597       -0.5345448156       -2.0391171220
 C         -2.0235595357       -1.3219488542       -1.2863627735
 C         -2.0073531039       -1.2076385689        0.0973487524
 N         -2.8952875144       -1.9854411425        0.8638413122
 S         -4.5106278849       -1.9154679112        0.4185277614
 O         -5.2551138697       -2.1757546824        1.6304474575
 O         -4.7486938652       -2.8240683991       -0.6746976106
 C         -4.7505952252       -0.2330747236       -0.1260137921
 C         -5.0147721794        0.0321403598       -1.4539223833
 C         -5.1300820909        1.3509760287       -1.8635478423
 C         -4.9743365665        2.3759742101       -0.9439566761
 C         -4.7147231134        2.0931280153        0.3884060775
 C         -4.5994141575        0.7769147272        0.8037280370
 H         -4.4034365837        0.5219033512        1.8331194005
 H         -4.5971749882        2.8930731448        1.1019464346
 H         -5.0563027097        3.4022276785       -1.2651940993
 H         -5.3345140006        1.5741726638       -2.8981930689
 H         -5.1252441177       -0.7943451940       -2.1366013145
 H         -2.7902707356       -1.8559023904        1.8596887312
 H         -2.6976872086       -2.0270645846       -1.7454267943
 H         -1.1740133364       -0.6243284166       -3.1146832670
 H          0.3595992124        0.9655250683       -2.0205189629
 C          0.6240626862        1.4601667265        0.6586119497
 H          0.3298697239        1.4846665023        1.7164598662
 C          0.4912243681        2.8613029519        0.0954185535
 C         -0.7623215195        3.6306721110        0.3807342002
 C          0.5278252756        4.0310972078        1.0297901303
 H          1.0136460049        4.9373142388        0.7004681893
 H          0.6558600584        3.8276008904        2.0833470471
 H         -1.5114881971        3.1508273458        0.9924942806
 H         -1.1654775523        4.2629080002       -0.3947323346
 H          0.9525108091        2.9862714384       -0.8743329631
 O          2.5859400125        1.5824728484       -1.5644141789
