  62
        -98.93446756
 C         -1.6808855450        0.0886429050       -0.9354284221
 C         -2.9003718756        0.7860332024       -0.7642088962
 C         -4.0906039654       -0.0371840337       -0.4778543648
 C         -3.9721778705       -1.3711932516       -0.3774618161
 C         -5.0487343399       -2.3968808170       -0.1248817971
 C         -6.1017420162       -2.0729108052        0.9438840413
 C         -5.5922160344       -1.2349052531        2.1255698108
 H         -5.8775421966       -1.7262371503        3.0577090879
 H         -4.5022701505       -1.1823073247        2.1056311835
 C         -6.1706029094        0.1820882239        2.1462448677
 H         -6.0795749794        0.5837891033        3.1583659912
 H         -7.2358759073        0.1292331230        1.9107578311
 C         -5.4986057759        1.1782816406        1.2022410832
 H         -6.0735346982        2.1071601998        1.2284551050
 H         -4.4945857159        1.4131870492        1.5658235510
 C         -5.3692929463        0.7199938501       -0.2596305446
 H         -6.2363766997        0.1422093792       -0.5699578804
 H         -5.3032328084        1.6131971678       -0.8866381229
 H         -6.9440185244       -1.5592763856        0.4823891466
 H         -6.4807604657       -3.0278888312        1.3118831717
 H         -4.5120244180       -3.3066526188        0.1545239490
 H         -5.5536227371       -2.6001012246       -1.0738147277
 O         -2.7753251307       -2.0034345833       -0.5370292965
 C         -1.6174056035       -1.3028914677       -0.8147694620
 O         -0.6046953692       -2.0210708142       -0.9363261134
 O         -3.0243909584        2.0367278450       -0.8481616938
 C         -0.3569367595        0.7666363661       -1.2467794012
 C          0.2993155516        1.3192625213       -0.0040283294
 C         -0.3158484515        2.2926764958        0.7759160761
 C          0.3240354871        2.7980632464        1.8925117005
 C          1.5926323966        2.3648420393        2.2368540569
 C          2.2166020904        1.3943399509        1.4623910459
 C          1.5595991581        0.8681019714        0.3591790531
 H          2.0408883203        0.1004884770       -0.2273887162
 N          3.4981043446        0.9279042518        1.7855079796
 S          4.5959785953        0.5754402947        0.5723524546
 O          5.8886541805        0.6873019187        1.2137065542
 O          4.3884852397        1.4060124890       -0.5903728437
 C          4.2964174926       -1.1338444652        0.1789599036
 C          4.3241393941       -2.0561684552        1.2059745978
 C          4.1121556322       -3.3927693153        0.9102860749
 C          3.8801713853       -3.7828877931       -0.4000480332
 C          3.8604791831       -2.8454950362       -1.4207087346
 C          4.0712733617       -1.5069354346       -1.1307814300
 H          4.0592513151       -0.7448794843       -1.8946641857
 H          3.6766127908       -3.1501798611       -2.4385772593
 H          3.7120295560       -4.8234630330       -0.6286473937
 H          4.1259999269       -4.1262215975        1.7004229897
 H          4.5116400177       -1.7155940385        2.2106467937
 H          3.9357421524        1.3889737933        2.5696910991
 H          2.0971484939        2.7734066654        3.0994608915
 H         -0.1641062333        3.5496776659        2.4946895143
 H         -1.2974511635        2.6449819427        0.4988070980
 H          0.2957058798       -0.0275392770       -1.6345793588
 C         -0.4596925722        1.8534781828       -2.3011729226
 C          0.7993786603        2.3433681685       -2.9490137960
 C         -0.1764676803        1.5186557679       -3.7328235825
 H         -0.7608092056        2.0032277289       -4.5006702518
 H          0.0892279882        0.4975151711       -3.9654364342
 H          0.8833588361        3.3948512458       -3.1781336905
 H          1.7317400816        1.8905996114       -2.6432447136
 H         -1.2374792708        2.5776223150       -2.0991237912
