  62
        -98.94022573
 C         -1.0410578206       -1.6564674399       -0.2291526099
 C         -1.1689535005       -0.2603459400       -0.4210462002
 C         -2.2981403806        0.4036849702        0.2628341194
 C         -3.1213285708       -0.3281249197        1.0340712593
 C         -4.3456364710        0.1383501505        1.7734920790
 C         -5.5554190608        0.3487034104        0.8424922786
 C         -5.2307445004        0.9535989502       -0.5222366514
 H         -4.4595326603        0.3512646100       -1.0058983011
 H         -6.1305500602        0.8838116801       -1.1391425516
 C         -4.7939608003        2.4164454401       -0.5007989915
 H         -4.5847322501        2.7122851600       -1.5316652915
 H         -5.6230764704        3.0295900602       -0.1396080818
 C         -3.5648122705        2.7317993902        0.3510026187
 H         -3.8081429508        2.6713056404        1.4084452287
 H         -3.2901953205        3.7727951202        0.1555310486
 C         -2.3261665605        1.8957818001        0.0387779192
 H         -2.0517720902        2.0414141700       -1.0118095408
 H         -1.4838362006        2.2917030802        0.6208480793
 H         -6.0137410007       -0.6273681596        0.6674606187
 H         -6.2847938009        0.9757728305        1.3573987083
 H         -4.5943089412       -0.6407626194        2.4974141090
 H         -4.1128462211        1.0418978006        2.3302721389
 O         -2.9597893209       -1.6712630396        1.1980328096
 C         -1.9260205608       -2.3569083898        0.5947957700
 O         -1.9031541109       -3.5784146397        0.8540887002
 H          1.4361708895       -0.2622338300       -0.2018581195
 C          1.8985317693       -1.1418228300        0.2127685007
 C          1.3300507194       -2.3858935700       -0.0174502892
 C          1.9378307992       -3.5095422499        0.5299315911
 C          3.0818483590       -3.3837761198        1.2985602514
 C          3.6289181490       -2.1381686698        1.5505001513
 C          3.0260419292       -1.0093455599        1.0075340110
 N          3.5467978191        0.2746351001        1.2269209709
 S          2.5016860091        1.5716005902        1.4111463904
 O          3.2786118190        2.5555902803        2.1413641305
 O          1.2623989290        1.1759474803        2.0424434102
 C          2.2129196696        2.2060672999       -0.2267342097
 C          2.9614724998        1.7765185697       -1.3022827095
 C          2.7117547902        2.3267879095       -2.5496636096
 C          1.7295014202        3.2922444296       -2.6991587800
 C          0.9925903000        3.7190026898       -1.6061237003
 C          1.2377612196        3.1732675299       -0.3575587401
 H          0.6838758494        3.4709822801        0.5191915397
 H          0.2246282300        4.4672130498       -1.7220212206
 H          1.5327276705        3.7115332694       -3.6734975601
 H          3.2807833804        1.9928806694       -3.4027644694
 H          3.7097695498        1.0140591597       -1.1610658692
 H          4.3224764790        0.3254545602        1.8708364711
 H          4.5103712588       -2.0379352798        2.1655462215
 H          3.5450670189       -4.2636111698        1.7189783216
 H          1.4980173692       -4.4824277399        0.3656649712
 C          0.0700983296       -2.4967150401       -0.8418581295
 H         -0.2787300305       -3.5369290301       -0.7841581594
 C          0.3509812999       -2.1628670203       -2.2944210895
 C          0.9990128701       -3.1956012805       -3.1646009992
 C         -0.4425181498       -2.8397036105       -3.3693360796
 H         -0.7171937896       -2.2681433506       -4.2429336097
 H         -1.1934682299       -3.5532466004       -3.0615593197
 H          1.7178382303       -2.8701350006       -3.9004425190
 H          1.2250497000       -4.1539331704       -2.7219805590
 H          0.6199394700       -1.1267248304       -2.4500624396
 O         -0.3984329403        0.4326595099       -1.1381655201
