  62
        -98.94965320
 C         -1.6882335318       -1.2224357211        0.3388578676
 C         -1.3287877539       -0.1581428027       -0.5205710141
 C         -1.8918739347        1.1529949043       -0.1863689836
 C         -2.6609380286        1.2886723323        0.9087805709
 C         -3.2775708282        2.5686840210        1.4043590495
 C         -4.6017898925        2.9352343456        0.7197312651
 C         -4.4763828783        3.4275088089       -0.7226421021
 H         -5.4429842604        3.8526396627       -1.0000686473
 H         -3.7414444495        4.2318371324       -0.7665317670
 C         -4.1083687836        2.3343144774       -1.7353091764
 H         -4.2941339151        1.3526434449       -1.2936545533
 H         -4.7533468149        2.4192668665       -2.6126757124
 C         -2.6623424616        2.3885854415       -2.2278700652
 H         -2.4989343899        3.3142455383       -2.7838842146
 H         -2.5015594359        1.5507140437       -2.9105437759
 C         -1.6129532050        2.2982389578       -1.1119768661
 H         -0.6348861890        2.1253238976       -1.5678909837
 H         -1.5706192440        3.2332774097       -0.5532199520
 H         -5.2628389369        2.0660870008        0.7528272554
 H         -5.0647185064        3.7274148537        1.3127413131
 H         -3.4671620490        2.4278989751        2.4709403760
 H         -2.5631023736        3.3844741065        1.2875193972
 O         -2.9596694585        0.2459168983        1.7295796407
 C         -2.4830640680       -1.0282554828        1.4663045845
 O         -2.8302581540       -1.8914997188        2.3002698607
 H          0.4949235489       -1.1754886357        1.6318807905
 C          1.0479371749       -1.7435763321        0.8975936913
 C          0.3699721121       -2.5576047459       -0.0009037868
 C          1.1117160737       -3.2855940006       -0.9232457591
 C          2.4910622587       -3.1739142558       -0.9602751264
 C          3.1562626236       -2.3207674762       -0.0987703869
 C          2.4235095746       -1.5972559955        0.8347239416
 N          3.0459155645       -0.6951573180        1.7241170501
 S          2.6410587125        0.9249341268        1.5639816317
 O          3.4654342747        1.6128536855        2.5352783996
 O          1.2176479780        1.0962932865        1.6988304338
 C          3.1898802126        1.3535754644       -0.0791725894
 C          2.4270668945        0.9835845022       -1.1686008329
 C          2.9073971846        1.2591871041       -2.4402978684
 C          4.1304581864        1.8911216659       -2.6011978787
 C          4.8840955268        2.2553622912       -1.4952813294
 C          4.4137534051        1.9799387328       -0.2218785621
 H          4.9622071916        2.2457003749        0.6674833569
 H          5.8343778076        2.7487765851       -1.6210562583
 H          4.4967354371        2.1009364959       -3.5937925733
 H          2.3145742689        0.9718624040       -3.2939737539
 H          1.4748840436        0.4958453012       -1.0252283437
 H          4.0536949836       -0.7783933435        1.7448212153
 H          4.2293697216       -2.2118081728       -0.1457429647
 H          3.0534608347       -3.7445268913       -1.6833475975
 H          0.6078925072       -3.9364214968       -1.6190896229
 C         -1.1367811546       -2.6127143953        0.0808464944
 H         -1.4146989502       -3.2203803088        0.9549422016
 C         -1.7812811623       -3.2081094591       -1.1550123429
 C         -2.0048400203       -4.6862313111       -1.2587757721
 C         -3.1676957527       -3.7654107144       -1.0466549788
 H         -3.8555810867       -3.6020651201       -1.8626485757
 H         -3.6338439901       -3.7408522144       -0.0720009639
 H         -1.6894877610       -5.2999045476       -0.4284821485
 H         -1.8984949377       -5.1579147476       -2.2240571463
 H         -1.5309229380       -2.6611221007       -2.0568452300
 O         -0.5694581307       -0.2971538054       -1.5157755206
