  62
        -98.93507558
 C          1.6559922097        0.1952906397        0.3767733498
 C          2.8078617396        0.9581274495        0.0774617093
 C          3.9761924195        0.2246839993       -0.4566342105
 C          3.8811793896       -1.1020110908       -0.6571587998
 C          4.9380762295       -2.0507289010       -1.1565427095
 C          5.9893139097       -2.3849856305       -0.0854289595
 C          6.4801102798       -1.1909885000        0.7291885298
 H          5.6266313498       -0.7107955998        1.2112522997
 H          7.1273167799       -1.5737341996        1.5228320899
 C          7.2720789296       -0.1487730404       -0.0566002108
 H          8.1495059896       -0.6249760606       -0.5000864707
 H          7.6262690397        0.5973961800        0.6593867688
 C          6.5048746694        0.5803990790       -1.1612813510
 H          6.3966952993       -0.0458550814       -2.0426600407
 H          7.1104810494        1.4396443589       -1.4644740716
 C          5.1485846795        1.1345095692       -0.7364888311
 H          5.2784751196        1.7447826396        0.1645363085
 H          4.8011860494        1.8325766788       -1.5078905714
 H          5.5458342998       -3.1014436001        0.6102833209
 H          6.8371332096       -2.8691508107       -0.5729918994
 H          4.4233821295       -2.9721814012       -1.4374615890
 H          5.4079739394       -1.6492816515       -2.0494632298
 O          2.7427273596       -1.7962618707       -0.3720094393
 C          1.6219753097       -1.1834419005        0.1453758305
 O          0.6672841897       -1.9573849104        0.3602340510
 O          2.8966876396        2.2049332596        0.2409201586
 C          0.3776818897        0.7836312299        0.9506086897
 C         -0.4850933304        1.4123736294       -0.1175242005
 C         -0.0368673906        2.4854105290       -0.8803864511
 C         -0.8619414707        3.0579567285       -1.8306266413
 C         -2.1508938607        2.5914230284       -2.0207503508
 C         -2.6085374106        1.5204783587       -1.2625358502
 C         -1.7683064005        0.9298943392       -0.3292433501
 H         -2.1228444003        0.0869493595        0.2442208404
 N         -3.9049978506        1.0184276386       -1.4375605998
 S         -4.7845693004        0.4633410092       -0.1276079694
 O         -6.1643620405        0.5637860990       -0.5532261793
 O         -4.4402403803        1.1686991199        1.0843321902
 C         -4.3482383403       -1.2564019507        0.0046238314
 C         -3.9352720802       -1.7687114401        1.2178865016
 C         -3.6227128601       -3.1158712000        1.3061112722
 C         -3.7300829403       -3.9229267306        0.1845657526
 C         -4.1495872204       -3.3937439912       -1.0266156276
 C         -4.4637069305       -2.0479258712       -1.1207172682
 H         -4.7955941306       -1.6014523317       -2.0432452484
 H         -4.2301320705       -4.0259958316       -1.8962430372
 H         -3.4829393402       -4.9703786305        0.2558989031
 H         -3.2923827100       -3.5282922095        2.2460277824
 H         -3.8603692001       -1.1047933296        2.0652138213
 H         -4.4782621807        1.5317678483       -2.0907674100
 H         -2.7993211008        3.0506186780       -2.7516545810
 H         -0.5026587508        3.8872852182       -2.4212911817
 H          0.9625330694        2.8603552091       -0.7228604414
 H         -0.1798562802       -0.0702216599        1.3594695802
 C          0.6147919199        1.7770807305        2.0732390592
 C         -0.5363788500        2.1453058409        2.9586821792
 C          0.5828798701        1.3038372812        3.4934577494
 H          1.2686129802        1.7470551516        4.2000536391
 H          0.3942074501        0.2542911313        3.6676683000
 H         -0.6174576100        3.1670182211        3.2973204987
 H         -1.4899734300        1.6751727808        2.7653898295
 H          1.3236833198        2.5534195804        1.8182464287
