  62
        -98.94439029
 C         -2.3382178345        1.1231993800       -0.2430409317
 C         -2.3714270034       -0.1327225190        0.4103550541
 C         -3.3497003632       -1.0968115558       -0.1114173290
 C         -4.1130531661       -0.7760652088       -1.1711986928
 C         -5.1370114927       -1.6606220333       -1.8290257738
 C         -6.5103485205       -1.6419897581       -1.1437408178
 C         -6.5783924100       -2.3715096222        0.1985120658
 H         -7.6346639805       -2.4667857662        0.4576818789
 H         -6.1791943987       -3.3797352281        0.0834622136
 C         -5.8520018349       -1.6562649923        1.3461742353
 H         -5.6738205423       -0.6141117992        1.0715138429
 H         -6.4899527802       -1.6492262596        2.2328011302
 C         -4.5229116472       -2.2943809481        1.7506543274
 H         -4.7025741272       -3.2945523850        2.1513235276
 H         -4.0790231967       -1.6886031385        2.5447719424
 C         -3.5015142228       -2.4018251167        0.6105641262
 H         -2.5298166057       -2.6594342881        1.0400377651
 H         -3.7937507268       -3.1893979249       -0.0838290577
 H         -6.8194420821       -0.6028527862       -1.0098324821
 H         -7.2204189870       -2.1149007497       -1.8259744410
 H         -5.2563832777       -1.2906181129       -2.8495933282
 H         -4.7634852784       -2.6841472862       -1.8723928758
 O         -4.0219515337        0.4268323291       -1.7975341425
 C         -3.1497551760        1.4019157453       -1.3464894957
 O         -3.1867911824        2.4623080923       -2.0018994276
 H          0.4786430450        0.8573703389        1.6606080345
 C          0.8339773965        1.1090760080        0.6740721139
 C          0.0167227490        1.8189458092       -0.1914432826
 C          0.4837993084        2.0956902105       -1.4732207792
 C          1.7392375747        1.6764571183       -1.8717364570
 C          2.5510874960        0.9640116457       -1.0057359771
 C          2.0860951932        0.6665691435        0.2675633781
 N          2.8950675800       -0.0688442566        1.1511569879
 S          3.6319763445       -1.4632075966        0.5763640523
 O          2.8782341144       -2.0690092588       -0.4972397431
 O          3.8582398483       -2.2826643950        1.7471449755
 C          5.2039798707       -0.8838212005       -0.0302221552
 C          5.6053501507       -1.1963724205       -1.3141659439
 C          6.8370049353       -0.7430925293       -1.7609361860
 C          7.6419041072        0.0095103966       -0.9196774522
 C          7.2255761779        0.3124790079        0.3682414001
 C          5.9961307855       -0.1384119654        0.8211268417
 H          5.6371333927        0.0726782417        1.8144902722
 H          7.8541797086        0.8982039958        1.0194632533
 H          8.5990923115        0.3620815690       -1.2701135800
 H          7.1620416565       -0.9783293330       -2.7617203437
 H          4.9433721092       -1.7794179733       -1.9348181986
 H          2.4511807645       -0.2464163351        2.0412047159
 H          3.5262504505        0.6239295523       -1.3138522265
 H          2.0897658455        1.9027776227       -2.8673135521
 H         -0.1596673434        2.6304869906       -2.1580740307
 C         -1.3853479663        2.2278098956        0.1898544250
 H         -1.6555717757        3.1065444078       -0.4103368075
 C         -1.5421626612        2.5757209148        1.6555954847
 C         -0.9511952922        3.8532671834        2.1688069288
 C         -2.4378088018        3.7114918711        2.0449672835
 H         -3.0251838610        3.6176875174        2.9461747291
 H         -2.9390328295        4.2474051904        1.2520737965
 H         -0.4419197360        4.4856680430        1.4575282611
 H         -0.5158176570        3.8609104695        3.1562662969
 H         -1.5312820518        1.7129469275        2.3092580089
 O         -1.6366580401       -0.4476959447        1.3838855811
