  62
        -98.94602738
 C         -1.2745258597       -1.1817745810       -0.1061653493
 C         -2.0392112301       -0.5843755213        0.9319007705
 C         -2.8224859007        0.6032706582        0.5707257203
 C         -2.7705284609        1.0617311881       -0.6927077498
 C         -3.5586491915        2.2258947176       -1.2184939100
 C         -4.9075605112        1.7688754467       -1.7913237401
 C         -5.6942046207        0.8470056564       -0.8594470400
 H         -6.6401585906        0.6160682858       -1.3540935500
 H         -5.1523150402       -0.0950288833       -0.7483825298
 C         -5.9741731212        1.4369659565        0.5299067799
 H         -5.8429436218        2.5194072266        0.5062396498
 H         -7.0174639011        1.2435679959        0.7881175899
 C         -5.1201324109        0.8462418971        1.6534345201
 H         -5.5452007512        1.1680208670        2.6078116700
 H         -5.1776564703       -0.2446630829        1.6216712002
 C         -3.6408554211        1.2521339080        1.6508610601
 H         -3.2044084310        0.9203084183        2.5971829702
 H         -3.5602020017        2.3395894380        1.5948547100
 H         -5.5036843616        2.6545692864       -2.0187410302
 H         -4.7240485908        1.2345341467       -2.7264866400
 H         -2.9828646817        2.7048727678       -2.0127733901
 H         -3.7189328519        2.9431496576       -0.4155615602
 O         -2.0106232905        0.4814184284       -1.6539083596
 C         -1.2410408599       -0.6432309912       -1.3921038294
 O         -0.5930873596       -1.0330754510       -2.3852999393
 O         -2.0681151799       -1.0320267711        2.1078186206
 C         -0.4690587790       -2.4146646005        0.2749584309
 C          0.9586798108       -2.0246970296        0.5718055210
 C          1.4842575707       -2.1361942492        1.8533732910
 C          2.7759824005       -1.7189103784        2.1260430010
 C          3.5620048602       -1.1654900681        1.1312739210
 C          3.0403245703       -1.0434287286       -0.1497546690
 C          1.7569880205       -1.4859691294       -0.4273751391
 H          1.3567993006       -1.3759880097       -1.4242373591
 N          3.8044122000       -0.4020607083       -1.1512201391
 S          4.1745576891        1.1931918619       -0.7792291393
 O          4.2918914188        1.8809756218       -2.0453077394
 O          5.3455838390        1.2183655727        0.0608887208
 C          2.7624012887        1.7811629013        0.1424925405
 C          1.5624948986        1.9334689905       -0.5232101396
 C          0.4417347684        2.3157746500        0.1948750302
 C          0.5341887882        2.5245079303        1.5619220102
 C          1.7468182582        2.3714236510        2.2151903603
 C          2.8730935685        1.9955320316        1.5011821705
 H          3.8344145685        1.8639300622        1.9698968506
 H          1.8150493880        2.5366851213        3.2781738203
 H         -0.3472592820        2.8040265999        2.1171582601
 H         -0.5031681017        2.4352951794       -0.3111622498
 H          1.5141573988        1.7548928303       -1.5863061696
 H          3.3576551601       -0.4407613587       -2.0574392891
 H          4.5600762200       -0.8079133575        1.3266296410
 H          3.1703837905       -1.8135270180        3.1259843811
 H          0.8647433709       -2.5337131694        2.6435555710
 H         -0.9184468889       -2.7733874506        1.2103966009
 C         -0.5395304683       -3.5299116807       -0.7485830089
 C         -0.2417868675       -4.9326587805       -0.3144892987
 C         -1.6453696477       -4.5366518513       -0.6598680588
 H         -2.0785760175       -4.9076638717       -1.5766367288
 H         -2.3572070079       -4.4282185016        0.1455348611
 H          0.2926134729       -5.5788998403       -0.9937103485
 H         -0.0030083875       -5.0945674002        0.7256690814
 H         -0.2213719784       -3.2316547607       -1.7388703689
