  62
        -98.94144608
 C         -2.5648545576       -0.1306146931        0.1239726514
 C         -2.5463371633        1.0054277463        0.9706115428
 C         -2.2014377335        2.2821740729        0.3388423610
 C         -1.9096529544        2.3163652436       -0.9736995057
 C         -1.5218550658        3.5358408319       -1.7643985796
 C         -0.0297985713        3.8795382351       -1.6564955418
 C          0.3957955784        4.5057109321       -0.3277411051
 H          1.3939147123        4.9227537520       -0.4752671143
 H         -0.2722376829        5.3324548105       -0.0822629724
 C          0.4489548263        3.5169065792        0.8454130504
 H          1.3708051814        3.6721869256        1.4122833076
 H          0.4921506731        2.4941502320        0.4613830787
 C         -0.7099455622        3.6356868069        1.8360864740
 H         -0.5946313398        2.8475265976        2.5853355004
 H         -0.6552152198        4.5993342003        2.3488281965
 C         -2.1041732502        3.4972652889        1.2114005061
 H         -2.8298556872        3.3835101172        2.0210093991
 H         -2.3511147213        4.3933892202        0.6421434104
 H          0.2039387982        4.5826672594       -2.4594629966
 H          0.5494740742        2.9680001975       -1.8244530866
 H         -1.7520304555        3.3155773307       -2.8089797448
 H         -2.1209199517        4.3899019143       -1.4467480686
 O         -1.9476928503        1.2086624046       -1.7574831609
 C         -2.2221383161       -0.0438293887       -1.2271185446
 O         -2.1446183184       -0.9677331642       -2.0589896312
 H         -0.2182892627       -0.8727560941        0.7652301542
 C         -0.3647737970       -1.8944381023        0.4438318539
 C         -1.6544794211       -2.4106218530        0.3850641427
 C         -1.8187993359       -3.7313645225       -0.0065314824
 C         -0.7163895661       -4.5022283024       -0.3396761691
 C          0.5594769381       -3.9732285585       -0.3131090573
 C          0.7330444988       -2.6446073890        0.0661663565
 N          2.0058407328       -2.0507647745        0.0243911608
 S          2.2394331943       -0.4405168070        0.4238700397
 O          2.0013682077       -0.2131379708        1.8345763494
 O          1.4951152687        0.3797615523       -0.4975103830
 C          3.9848773229       -0.3090800295        0.0881062660
 C          4.8882819422       -0.4820170781        1.1196343419
 C          6.2447478195       -0.4162073939        0.8423672848
 C          6.6727827976       -0.1805914463       -0.4554257456
 C          5.7545263862       -0.0058717322       -1.4802177644
 C          4.3969694765       -0.0711727667       -1.2090821424
 H          3.6454306408        0.0641082538       -1.9698913843
 H          6.0903357405        0.1807449976       -2.4874962435
 H          7.7285990773       -0.1298007217       -0.6695003206
 H          6.9605900075       -0.5479422495        1.6376269790
 H          4.5083102318       -0.6514542968        2.1142722960
 H          2.7715985807       -2.6549485291        0.2809972964
 H          1.4130352973       -4.5692257430       -0.5955816751
 H         -0.8576351256       -5.5298773523       -0.6387022605
 H         -2.8074227440       -4.1559353410       -0.0673717928
 C         -2.7847155083       -1.4868247871        0.7710203919
 H         -2.6905809808       -1.2835530293        1.8527457296
 C         -4.1674597364       -2.0873181799        0.5673678011
 C         -5.3298035085       -1.2360461418        0.1540932257
 C         -4.7746513954       -2.2558662382       -0.7919918683
 H         -5.3582836232       -3.1441787399       -0.9849001003
 H         -4.1982040595       -1.9140574856       -1.6367156277
 H         -5.1365337707       -0.1925915490       -0.0503401653
 H         -6.2897236393       -1.4219618771        0.6123544742
 H         -4.3837303701       -2.8638789774        1.2948416423
 O         -2.7994365573        0.9511226145        2.2060058690
