  62
        -98.94227504
 C          0.8139813694        1.2531716678        0.6700459225
 C          1.3434969840        1.0790557390       -0.6292974177
 C          2.1758490054       -0.1192580268       -0.8406572056
 C          2.3740119875       -0.9670084080        0.1831704399
 C          3.2051122657       -2.2214930767        0.1924568624
 C          4.6439754841       -1.9265847863        0.6496073947
 C          5.6051878412       -1.5220086133       -0.4668730609
 H          6.5458494619       -1.2281024985        0.0042642152
 H          5.8105855187       -2.3904133523       -1.0962754782
 C          5.1231475173       -0.3751475555       -1.3584239350
 H          4.6758518115        0.4069750486       -0.7423827662
 H          5.9964127519        0.0584561611       -1.8494353721
 C          4.1213975237       -0.8246064982       -2.4330251740
 H          4.1144306121       -1.9131210204       -2.4869868220
 H          4.4540729853       -0.4699187527       -3.4109651318
 C          2.6897979910       -0.3063022650       -2.2412738909
 H          2.5957463573        0.6815941437       -2.7044196677
 H          1.9877291196       -0.9602498405       -2.7721158305
 H          5.0463727092       -2.8184865729        1.1340088970
 H          4.6004745318       -1.1355018527        1.4022303896
 H          3.1898435361       -2.6988867311       -0.7831811754
 H          2.7425617736       -2.8955799744        0.9167883153
 O          1.8509386843       -0.7553585216        1.4238351298
 C          1.0420626294        0.3339638130        1.6915979876
 O          0.5931490260        0.3716329900        2.8549619417
 O          1.1375231693        1.8893190843       -1.5712700382
 C         -0.1195776223        2.4154311070        0.9558910654
 C         -1.3076506176        2.3349536012        0.0268661205
 C         -1.8643589694        3.4354169447       -0.6112449807
 C         -2.9368395215        3.2738530426       -1.4718986808
 C         -3.4643803267        2.0208075839       -1.7245465779
 C         -2.9227501700        0.9147949864       -1.0791092433
 C         -1.8728946769        1.0854665198       -0.1934621427
 H         -1.4572527547        0.2236756362        0.3081356749
 N         -3.4320492533       -0.3760436475       -1.2870716910
 S         -2.3884193982       -1.6845061642       -1.2991374048
 O         -1.1091577025       -1.3597555920       -1.8853586160
 O         -3.1403984618       -2.7281273936       -1.9665923774
 C         -2.1958708892       -2.1241597602        0.4142231458
 C         -3.3084731299       -2.1493169612        1.2312573254
 C         -3.1507841840       -2.5061156552        2.5607663119
 C         -1.8934820847       -2.8318298646        3.0466120426
 C         -0.7879376943       -2.8096626312        2.2110932289
 C         -0.9397292600       -2.4557428842        0.8804535406
 H         -0.1044040810       -2.4074818403        0.1980293238
 H          0.1924767367       -3.0475078265        2.5917784032
 H         -1.7699271365       -3.0998133955        4.0839692470
 H         -4.0065987376       -2.5240581317        3.2162154565
 H         -4.2679961120       -1.8840886172        0.8197450223
 H         -4.1398796636       -0.4497123683       -2.0033510701
 H         -4.2829894726        1.8950923932       -2.4167113673
 H         -3.3571566800        4.1357523644       -1.9677266826
 H         -1.4516890318        4.4171429169       -0.4457225458
 H         -0.4782238972        2.2719341539        1.9860985807
 C          0.6223526842        3.7331185087        0.8752603110
 C          0.1957722836        4.8945495271        1.7206638651
 C          1.4621544419        4.1603332852        2.0402309558
 H          2.4063274056        4.6461644543        1.8449299332
 H          1.4755110937        3.5111392164        2.9037942261
 H          0.2731722637        5.8890200856        1.3076236045
 H         -0.6496240269        4.7521674454        2.3765962548
 H          1.0053557138        3.9328812630       -0.1189179524
