  62
        -98.94453235
 C         -1.5298699527       -1.5023401774        0.2012332576
 C         -1.7441777467       -0.4574596623        1.1384914716
 C         -2.9802608227        0.3206379013        0.9853422795
 C         -3.8092497756        0.0344223380       -0.0354901558
 C         -5.0918370785        0.7562861325       -0.3300711388
 C         -4.8655450024        1.9435541083       -1.2759456016
 C         -3.7223996039        2.8613119013       -0.8445253545
 H         -2.7840642408        2.3071059597       -0.9120863966
 H         -3.6679530431        3.6780994195       -1.5669665313
 C         -3.8730138974        3.4381171865        0.5700128263
 H         -4.9090119933        3.3458071476        0.8982243454
 H         -3.6362624752        4.5037835289        0.5421906452
 C         -2.9541398129        2.8082928719        1.6187626578
 H         -1.9186745214        2.8426807275        1.2726018690
 H         -3.0096550672        3.4169549197        2.5255067514
 C         -3.2824612591        1.3657673234        2.0235360509
 H         -2.6587332926        1.1169749495        2.8875984888
 H         -4.3293943342        1.3022553582        2.3295831697
 H         -4.6379007459        1.5551463587       -2.2711777098
 H         -5.7924885877        2.5163937395       -1.3383004242
 H         -5.5279828607        1.1022600202        0.6053662972
 H         -5.7793456306        0.0523550255       -0.8019495711
 O         -3.5457847355       -0.9334542972       -0.9460341934
 C         -2.4159860855       -1.7349543964       -0.8519569646
 O         -2.3403972091       -2.5883545342       -1.7558342908
 O         -0.9423583098       -0.2007328287        2.0777525584
 C         -0.3060478211       -2.3763668681        0.4224659784
 C          0.8430004481       -1.9796386175       -0.4727797917
 C          0.7983248491       -2.1625431728       -1.8513444108
 C          1.8748760173       -1.7980988971       -2.6387435598
 C          3.0040504581       -1.2285056961       -2.0753104522
 C          3.0545415780       -1.0331536209       -0.7011638365
 C          1.9820270187       -1.4222170498        0.0899105739
 H          2.0403680141       -1.2683984853        1.1570907676
 N          4.1769307660       -0.4419698129       -0.0917715460
 S          3.9089535286        0.8479858385        0.9475710655
 O          5.1881344518        1.5183061941        1.0329155207
 O          3.3591906602        0.3744653755        2.1902316942
 C          2.7462359147        1.8627019153        0.0551856017
 C          3.2562778942        2.7258655777       -0.8963114861
 C          2.3820226522        3.4497622365       -1.6892634831
 C          1.0142445692        3.2815403554       -1.5341450697
 C          0.5209276088        2.4098873943       -0.5770719475
 C          1.3879871021        1.6947973749        0.2342884479
 H          1.0161574929        1.0243185399        0.9935397229
 H         -0.5420228096        2.2690737468       -0.4560238293
 H          0.3278995741        3.8316859104       -2.1583057406
 H          2.7657851921        4.1337189376       -2.4288658485
 H          4.3263749140        2.8236243766       -0.9842262715
 H          4.9215793610       -0.2189771283       -0.7375210176
 H          3.8398284682       -0.9380118863       -2.6935226060
 H          1.8308465910       -1.9499485629       -3.7065328817
 H         -0.0913876828       -2.5795822890       -2.2969796853
 H          0.0030637616       -2.1729606968        1.4574342977
 C         -0.6007781708       -3.8590020926        0.2994097897
 C          0.3256911427       -4.8357940401        0.9564321767
 C         -1.0506308209       -4.6190735418        1.5090082112
 H         -1.7878096831       -5.3978187039        1.3832307422
 H         -1.1475625888       -4.0730164326        2.4364564497
 H          0.5365993141       -5.7658049319        0.4514476709
 H          1.1626531418       -4.4360496180        1.5096764711
 H         -1.0359816497       -4.1374621693       -0.6510712906
