  62
        -98.94073053
 C          1.1458244893        0.9745165696        0.4088461816
 C          2.0199930394        0.7654448001       -0.6835961184
 C          3.0577233790       -0.2600026204       -0.4910267389
 C          3.0826868986       -0.9633688212        0.6555980306
 C          4.1216357481       -1.9818778119        1.0304742000
 C          5.4174194583       -1.2728740626        1.4742995108
 C          6.6150301584       -1.5143221224        0.5554024809
 H          7.3949946686       -0.8059306728        0.8423755216
 H          7.0012546580       -2.5201810426        0.7330028202
 C          6.3428870488       -1.3755430411       -0.9455552391
 H          7.3144376589       -1.3100679111       -1.4399703588
 H          5.8652858085       -2.2833422007       -1.3174190198
 C          5.4942909393       -0.1684194205       -1.3654002883
 H          5.9046408296        0.2271367100       -2.2966727179
 H          5.5638752194        0.6274436589       -0.6236992777
 C          4.0111924592       -0.4884631898       -1.6312487689
 H          3.6494685096        0.1655816609       -2.4305060485
 H          3.9162202589       -1.5192731995       -1.9847690897
 H          5.2158476586       -0.2015181126        1.5372734716
 H          5.6856509480       -1.6017703635        2.4793856106
 H          3.7125412378       -2.5774347124        1.8471241695
 H          4.3126537781       -2.6391922613        0.1849522896
 O          2.1903145884       -0.7700568217        1.6615048105
 C          1.1967241788        0.1890711287        1.5593008810
 O          0.4307147186        0.2457560082        2.5437590809
 H         -0.8334654111       -0.4229035592       -0.2787140698
 C         -1.2917227507        0.3194340314       -0.9139454794
 C         -0.9254807202        1.6517868112       -0.7849876183
 C         -1.5046521998        2.5822811720       -1.6385858177
 C         -2.4153242697        2.1762598931       -2.5990854882
 C         -2.7909335901        0.8496170633       -2.7107091493
 C         -2.2219997506       -0.0873005276       -1.8558514099
 N         -2.5774465311       -1.4440399274       -1.9130681110
 S         -2.6970168416       -2.3042246384       -0.4820628616
 O         -1.3867311419       -2.6530187692        0.0083821084
 O         -3.5609684920       -3.4190517979       -0.8104238027
 C         -3.5399135315       -1.2006561390        0.6388507590
 C         -2.8771019915       -0.6120668900        1.6958138596
 C         -3.5664890014        0.2821132896        2.5010385301
 C         -4.8961791512        0.5707815103        2.2396183101
 C         -5.5512187612       -0.0366372187        1.1786110995
 C         -4.8679852014       -0.9279545183        0.3689461489
 H         -5.3445087714       -1.4291706576       -0.4578320815
 H         -6.5874154811        0.1843699918        0.9798588094
 H         -5.4238912011        1.2705759200        2.8681923305
 H         -3.0475589414        0.7483958488        3.3235771306
 H         -1.8392497116       -0.8418275505        1.8826823796
 H         -3.3312182010       -1.6613782467       -2.5483011113
 H         -3.5080757301        0.5380613841       -3.4543176397
 H         -2.8485500793        2.9069828637       -3.2648168478
 H         -1.2375965894        3.6230660419       -1.5573460169
 C          0.0460037596        2.0152201600        0.3127014622
 H         -0.5022801706        1.9624295295        1.2657966720
 C          0.6345962601        3.4029943500        0.1659653233
 C         -0.0778220896        4.5898187598        0.7395925441
 C          1.1781855501        4.0869555389        1.3833402640
 H          2.0808313003        4.6714321186        1.2871737546
 H          1.0984462797        3.5605611782        2.3237642036
 H         -0.0355876391        5.5255003601        0.2028357748
 H         -1.0121420697        4.4138268897        1.2507774938
 H          1.1786246804        3.5275886605       -0.7628584765
 O          1.9403233299        1.4023063910       -1.7669469979
