  62
        -98.94143657
 C         -2.3213232533       -1.1032257545       -0.5584880905
 C         -3.6265571603       -0.9569358412       -0.0239631515
 C         -4.3477215983        0.2602335055       -0.4087089713
 C         -3.7584493193        1.1549606932       -1.2225123731
 C         -4.3681976458        2.4388681982       -1.7161161160
 C         -4.2330614676        3.6103053653       -0.7335647081
 C         -5.1288958724        3.5290206779        0.5031284719
 H         -5.0953122242        4.5070322478        0.9873102799
 H         -6.1595919779        3.3541585760        0.1930798994
 C         -4.7073965821        2.4605658376        1.5217759557
 H         -3.6756417444        2.1569078389        1.3270525842
 H         -4.7277368200        2.8877807304        2.5269936067
 C         -5.5958380224        1.2164898680        1.5404998558
 H         -6.6010911334        1.4893397450        1.8690211241
 H         -5.1828952706        0.5126750916        2.2676207332
 C         -5.7014310185        0.4955846546        0.1903381728
 H         -6.3265104919        1.0682397010       -0.4942129791
 H         -6.1652257743       -0.4794450721        0.3579699519
 H         -4.4846718465        4.5232066020       -1.2783503968
 H         -3.1883656466        3.6865913339       -0.4221570709
 H         -3.8414314407        2.6995097259       -2.6365633237
 H         -5.4208236670        2.2786796088       -1.9507396959
 O         -2.5066018465        0.9763735576       -1.7197484820
 C         -1.7484588181       -0.1378062070       -1.3865708595
 O         -0.6134271577       -0.1451995457       -1.9015537453
 O         -4.1638576142       -1.8068586446        0.7345720612
 C         -1.5188578497       -2.3288499961       -0.1515969841
 C         -0.4084156802       -1.8649829599        0.7580200468
 C         -0.6878092691       -1.6222311466        2.1002775562
 C          0.2825253885       -1.1123916023        2.9421747635
 C          1.5492577918       -0.8258718720        2.4630069124
 C          1.8337541885       -1.0554484883        1.1241011135
 C          0.8632350427       -1.5854863379        0.2835540259
 H          1.0921704149       -1.7424589192       -0.7585498207
 N          3.1177313794       -0.7609717648        0.6203391041
 S          3.7487795682        0.7530690892        1.0301752078
 O          4.3046163575        0.6660445046        2.3584130089
 O          2.7558421617        1.7861359434        0.8322155812
 C          5.0637761053        0.9066242134       -0.1618504128
 C          6.3081358322        0.3883500385        0.1420993213
 C          7.3204607737        0.4830920550       -0.7995604907
 C          7.0724846457        1.0897843307       -2.0218721962
 C          5.8180513770        1.6052434364       -2.3123231627
 C          4.8004696682        1.5123901019       -1.3758113057
 H          3.8117067745        1.9043753371       -1.5570134341
 H          5.6275902852        2.0775042182       -3.2627608316
 H          7.8616690175        1.1639596401       -2.7532581821
 H          8.2974409717        0.0851021812       -0.5777494538
 H          6.4545731373       -0.0660912231        1.1079063677
 H          3.1484000865       -0.8822058668       -0.3839160435
 H          2.3104446253       -0.4081307137        3.1019886919
 H          0.0515275232       -0.9286910181        3.9809591435
 H         -1.6840405764       -1.8218106984        2.4703449834
 H         -2.2101723983       -2.9443443623        0.4394751434
 C         -1.0477293506       -3.1332502105       -1.3441359547
 C         -0.5403838604       -4.5273639000       -1.1314546194
 C         -1.8611885651       -4.3047499885       -1.8029021648
 H         -1.9399653166       -4.4920215617       -2.8633029039
 H         -2.7610887318       -4.5346181208       -1.2516441173
 H          0.2890987215       -4.8719609332       -1.7295810592
 H         -0.5424155950       -4.9072040399       -0.1210355989
 H         -0.5756269070       -2.5312651739       -2.1107071664
