  62
        -98.93912645
 C          2.3229325155        1.2559459333       -0.0146528333
 C          3.1612457692        0.5912031802        0.9068291138
 C          3.9542213170       -0.5434744214        0.3938653068
 C          3.8195617806       -0.8928528807       -0.8993617154
 C          4.4836365439       -2.0279070165       -1.6333556264
 C          3.8695407475       -3.3949411014       -1.2934176435
 C          3.6205725243       -3.6346711718        0.1932928671
 H          3.0982049363       -4.5901149568        0.2919910174
 H          2.9498759076       -2.8611252652        0.5726454059
 C          4.8748968756       -3.6935585250        1.0622815025
 H          5.5309100047       -4.4831520186        0.6896991472
 H          4.5569858223       -3.9742621044        2.0696467509
 C          5.6805979258       -2.3961901096        1.1640301297
 H          6.2926532838       -2.2417950087        0.2795746821
 H          6.3721204927       -2.5084653405        2.0040173320
 C          4.8473150594       -1.1509387419        1.4492698753
 H          5.5215358839       -0.3439294532        1.7603217586
 H          4.2062984915       -1.3390315707        2.3182949726
 H          4.5251850485       -4.1744105590       -1.6852927398
 H          2.9083486881       -3.4719033933       -1.8085151151
 H          5.5520380380       -2.0253537859       -1.4393195763
 H          4.3378349516       -1.8379766207       -2.6990527974
 O          2.9762193340       -0.2358920529       -1.7478509344
 C          2.2158575128        0.8457653560       -1.3429432551
 O          1.5050079161        1.3433142054       -2.2365014589
 O          3.2440543945        0.9224883557        2.1216285646
 C          1.4982371196        2.4401659908        0.4549506828
 C          0.0298825912        2.1732997281        0.2326753277
 C         -0.8343496048        3.0851262261       -0.3583044713
 C         -2.1686237708        2.7664492809       -0.5447263557
 C         -2.6714771388        1.5435462282       -0.1414730494
 C         -1.8172774504        0.6253640326        0.4554902701
 C         -0.4827843911        0.9485112363        0.6430799905
 H          0.1827222034        0.2289476126        1.1054773729
 N         -2.3201925277       -0.6170383452        0.8833997202
 S         -3.2030431918       -1.5314085674       -0.2167596539
 O         -3.0487221315       -2.9004045099        0.2268023649
 O         -2.8166606574       -1.2484055827       -1.5795282489
 C         -4.8852863725       -1.0194303663        0.0653237128
 C         -5.4029225107       -1.1580842477        1.3383616505
 C         -6.7114468434       -0.7681536075        1.5745640337
 C         -7.4766184352       -0.2515575014        0.5394038919
 C         -6.9434758281       -0.1222898760       -0.7338954712
 C         -5.6346906993       -0.5098400815       -0.9767799376
 H         -5.1756907256       -0.4238712938       -1.9490433780
 H         -7.5396439711        0.2788670913       -1.5376725561
 H         -8.4948462393        0.0512912930        0.7258812432
 H         -7.1296986598       -0.8678151133        2.5632103943
 H         -4.7763907669       -1.5684727261        2.1124695665
 H         -1.6275101368       -1.1945125528        1.3383250105
 H         -3.7080470609        1.2899314676       -0.2913269989
 H         -2.8267476665        3.4821545460       -1.0132433082
 H         -0.4616677735        4.0419755223       -0.6845040829
 H          1.6741815202        2.5072748111        1.5391779967
 C          1.9919388330        3.7143142186       -0.1974248651
 C          1.8495152980        5.0289626030        0.5079737520
 C          3.1998729954        4.3942763335        0.3717290085
 H          3.9130322569        4.8334733101       -0.3095588967
 H          3.6500847400        3.9505738735        1.2478064567
 H          1.6375853560        5.9092021179       -0.0798506185
 H          1.3847108851        5.0250242945        1.4821483602
 H          1.8909902436        3.6940457552       -1.2769353072
