  62
        -98.94270278
 C         -1.3118642920       -1.6135001804        0.3198819072
 C         -1.9075077269       -1.1170456812       -0.8656860469
 C         -2.9484158902       -0.0923357300       -0.6802124368
 C         -3.2132983468        0.3711764960        0.5542574840
 C         -4.2215186542        1.4363256419        0.8736606578
 C         -3.6026806509        2.8400956300        0.8368603537
 C         -2.7838315729        3.1232569420       -0.4221241800
 H         -2.4241096327        4.1520511890       -0.3539447899
 H         -1.9060482015        2.4728661741       -0.4297792971
 C         -3.5554413302        2.9456212538       -1.7367812639
 H         -3.3375497152        3.7934819158       -2.3897013522
 H         -4.6287814899        2.9539212196       -1.5436023326
 C         -3.1916664128        1.6794852354       -2.5134031759
 H         -2.1062747428        1.6189880634       -2.6292638749
 H         -3.6213618315        1.7589891757       -3.5157054898
 C         -3.6893083684        0.3615498741       -1.9073082184
 H         -4.7593703513        0.4356333317       -1.7013587630
 H         -3.5381398468       -0.4230040487       -2.6548527128
 H         -4.4078630826        3.5721933883        0.9212110874
 H         -2.9487743405        2.9514540947        1.7038926484
 H         -5.0416391258        1.3723435818        0.1605361946
 H         -4.6108529089        1.2475242135        1.8755591097
 O         -2.5619554429       -0.0685569728        1.6601932449
 C         -1.6270196558       -1.0857495943        1.5755694533
 O         -1.1486591030       -1.4339835813        2.6724662561
 H          0.5395890748       -0.5610422926       -1.1000600627
 C          1.3639147674       -1.1373803646       -0.7056595327
 C          1.1112367858       -2.2822867909        0.0329910235
 C          2.1955732510       -3.0057946357        0.5196411276
 C          3.4928572582       -2.5958467121        0.2700183207
 C          3.7394991226       -1.4458599492       -0.4599855493
 C          2.6647228584       -0.7140580250       -0.9437499683
 N          2.9107927389        0.4956756383       -1.6356054273
 S          3.4268908674        1.7547332740       -0.6549742122
 O          3.4455759867        2.9304123264       -1.4940247615
 O          4.6783908228        1.3769163257       -0.0514995702
 C          2.1655096455        1.9187306703        0.5974322988
 C          2.0974673169        0.9783168925        1.6074379595
 C          1.0651591231        1.0577556278        2.5285779932
 C          0.1361555338        2.0823663902        2.4370726275
 C          0.2305115574        3.0313141803        1.4309750991
 C          1.2441612100        2.9409224872        0.4905040866
 H          1.3442246776        3.6487246629       -0.3169052320
 H         -0.4844158433        3.8361254156        1.3730222172
 H         -0.6668191878        2.1316119217        3.1560941553
 H          0.9731808159        0.3107056832        3.3008107289
 H          2.8462004951        0.2052531332        1.6651273114
 H          2.1132637671        0.8079194380       -2.1729888465
 H          4.7407723440       -1.0894977389       -0.6376388836
 H          4.3214953806       -3.1700502578        0.6550793815
 H          2.0162473188       -3.8923419368        1.1081556791
 C         -0.2984202045       -2.7427709143        0.3256935701
 H         -0.3043542635       -3.1408854962        1.3501953582
 C         -0.6765407203       -3.8669911696       -0.6235618004
 C         -0.3654630880       -5.2882395500       -0.2693476588
 C         -1.7834081284       -4.8035780958       -0.2468930322
 H         -2.4618084310       -5.1352050587       -1.0183110426
 H         -2.2555430097       -4.6547743642        0.7136947843
 H          0.1098332660       -5.4834391073        0.6797431807
 H         -0.0629132612       -5.9589911921       -1.0587052850
 H         -0.6066709777       -3.5805543936       -1.6652776667
 O         -1.6030120394       -1.4928289538       -2.0292935496
