  62
        -98.93587505
 C         -2.3795479546       -0.7163140339        0.2268775425
 C         -2.5101250323        0.6964141667        0.2473489080
 C         -3.7392908165        1.2515311648       -0.3331594031
 C         -4.6514383144        0.4130412020       -0.8573158913
 C         -5.9713547478        0.8310473290       -1.4365350694
 C         -7.0737465811        0.8255604039       -0.3683672696
 C         -6.6909397460        1.5590368410        0.9169957911
 H         -7.5538717412        1.5177094771        1.5850939296
 H         -5.8783302456        1.0183222036        1.4076870971
 C         -6.2724235793        3.0217050891        0.7123457687
 H         -6.6184359758        3.3739535516       -0.2599814642
 H         -6.7603514307        3.6354373859        1.4724247558
 C         -4.7684662433        3.2742871523        0.8356506174
 H         -4.6079107482        4.3542821303        0.8925805481
 H         -4.3980094056        2.8400942770        1.7678967414
 C         -3.9051501042        2.7451330499       -0.3168100639
 H         -2.8984555265        3.1562012550       -0.1947379115
 H         -4.3064236013        3.0981402613       -1.2691907303
 H         -7.9700172564        1.2792189639       -0.7950935248
 H         -7.3045390977       -0.2115440600       -0.1147089969
 H         -6.2386741298        0.1263859340       -2.2256479268
 H         -5.8729213404        1.8253331166       -1.8677417680
 O         -4.4886377756       -0.9320727195       -0.8747181485
 C         -3.3582022786       -1.5378477836       -0.3355810701
 O         -3.3690633632       -2.7777018547       -0.4306281870
 O         -1.6353535698        1.4606831188        0.7406251851
 C         -1.1155879952       -1.2892196102        0.8419526637
 C         -0.0302093938       -1.4622123170       -0.1906524957
 C         -0.2771230386       -2.1029076537       -1.4010451326
 C          0.7351792082       -2.2539224632       -2.3307802965
 C          2.0058825419       -1.7703576623       -2.0746710056
 C          2.2658812210       -1.1347639428       -0.8656386873
 C          1.2468266610       -0.9837728007        0.0652304247
 H          1.4542060672       -0.4677073428        0.9905543349
 N          3.5630218876       -0.6846383489       -0.5676378871
 S          3.7755805830        0.7150996773        0.3522507783
 O          3.5064300270        0.4070489693        1.7339270352
 O          3.0304813375        1.8108528991       -0.2257512487
 C          5.5260777018        0.9655749330        0.1242428477
 C          6.4046626087        0.1998159646        0.8673855686
 C          7.7666693621        0.3672311212        0.6750473470
 C          8.2252112079        1.2919739055       -0.2516475435
 C          7.3316387552        2.0549200312       -0.9881392113
 C          5.9677910964        1.8913242386       -0.8017939734
 H          5.2360355153        2.4676579517       -1.3450088743
 H          7.6909660201        2.7755107798       -1.7050246464
 H          9.2858527836        1.4211099890       -0.3986403215
 H          8.4646008343       -0.2219612816        1.2476826720
 H          6.0021554684       -0.4988530928        1.5820336349
 H          4.1649241349       -0.6757693940       -1.3803633385
 H          2.7928934818       -1.8870370781       -2.8041827640
 H          0.5309052151       -2.7506925202       -3.2673901938
 H         -1.2669959832       -2.4844278702       -1.6006797557
 H         -0.7696276731       -0.5134091791        1.5450437293
 C         -1.3590812972       -2.5554243080        1.6527100481
 C         -0.8793854504       -3.9101357423        1.2364032371
 C         -0.2198179033       -3.2054417956        2.3811062838
 H         -0.3875408407       -3.5696516022        3.3833820640
 H          0.7671968618       -2.7975778072        2.2184834609
 H         -1.5235303860       -4.7510242112        1.4423478748
 H         -0.3368947401       -3.9958038188        0.3085065870
 H         -2.3122913119       -2.5236696325        2.1710658521
