  62
        -98.94471987
 C          1.9950409503        1.3625300828        0.3089345460
 C          2.6553415709        0.7739856280       -0.7967501612
 C          3.8157222828       -0.0691213552       -0.4725941018
 C          4.1781428285       -0.2293448915        0.8132017007
 C          5.3020844153       -1.1046938477        1.2853275888
 C          4.8056495392       -2.5229208858        1.6000512279
 C          3.9483202137       -3.1375327664        0.4932573137
 H          3.6795874801       -4.1471439931        0.8121166291
 H          3.0175395682       -2.5718713438        0.4046050516
 C          4.6328763241       -3.2001333153       -0.8793572626
 H          5.7115542356       -3.0918909450       -0.7602257810
 H          4.4518963481       -4.1848241703       -1.3154813401
 C          4.1279852326       -2.1667732327       -1.8883744668
 H          4.5139852021       -2.4386470109       -2.8744129810
 H          3.0367693127       -2.2091386477       -1.9425192173
 C          4.5412639767       -0.7141795339       -1.6194569614
 H          5.6219725223       -0.6596902150       -1.4737800010
 H          4.2824151614       -0.1271121895       -2.5054417338
 H          5.6725452452       -3.1594372488        1.7859478598
 H          4.2090020953       -2.4864762920        2.5146315727
 H          6.0744783563       -1.1403599441        0.5197320620
 H          5.7218803517       -0.6669565548        2.1925795230
 O          3.5184697596        0.3528012038        1.8475190618
 C          2.4045254470        1.1463274335        1.6239260943
 O          1.8703239384        1.5889109862        2.6618872064
 O          2.2964493512        0.9405207870       -1.9908644956
 C          0.7760578783        2.2388941038        0.0825787209
 C         -0.3061369986        1.4452200088       -0.6094515152
 C         -1.0176260715        1.9112611977       -1.7065058107
 C         -1.9951547163        1.1254612290       -2.2938287372
 C         -2.2915766554       -0.1298801832       -1.7974849545
 C         -1.6005564655       -0.5968261480       -0.6857017120
 C         -0.6243331228        0.1922949249       -0.0983216668
 H         -0.0855782745       -0.1740265069        0.7675526179
 N         -1.9090948496       -1.8626204792       -0.1587699968
 S         -3.5258897566       -2.2596351408        0.0184297170
 O         -3.5656854903       -3.2051256867        1.1119993628
 O         -4.0493671276       -2.7317791729       -1.2391281209
 C         -4.3369995231       -0.7370002888        0.4742646685
 C         -5.3197566924       -0.2092290969       -0.3380476566
 C         -5.9139768920        0.9900036314        0.0212571668
 C         -5.5137195161        1.6393670222        1.1784930676
 C         -4.5270534977        1.0945608288        1.9862953919
 C         -3.9313687452       -0.1051671434        1.6332008214
 H         -3.1644796554       -0.5556807440        2.2433025336
 H         -4.2159834083        1.6002437604        2.8864627540
 H         -5.9725715810        2.5753477395        1.4552573571
 H         -6.6828486815        1.4149540230       -0.6035292859
 H         -5.5978993161       -0.7458213697       -1.2304167087
 H         -1.3795900682       -2.1057176040        0.6651016538
 H         -3.0363025418       -0.7604429834       -2.2553171445
 H         -2.5310255898        1.4951443138       -3.1544527131
 H         -0.7999653519        2.8858330686       -2.1105814444
 H          0.4088710565        2.5111951484        1.0830099886
 C          1.1676718547        3.5036303959       -0.6522399725
 C          0.3901721653        4.7675784568       -0.4449516003
 C          1.7683379978        4.6331028002        0.1275637296
 H          2.5727827797        5.1979208251       -0.3191217421
 H          1.8713965451        4.4986078990        1.1948117318
 H          0.2496236446        5.4305694160       -1.2852005917
 H         -0.4458102680        4.7344041311        0.2370250076
 H          1.5740582387        3.3041645453       -1.6368943120
