  62
        -98.94283970
 C          1.5894627283        1.4121575976       -0.1586165770
 C          2.4381386667        0.6806376400        0.7027165606
 C          2.9342955070       -0.6143399439        0.2041257270
 C          2.5505272049       -1.0430698058       -1.0127419137
 C          2.9085093690       -2.2889281301       -1.7962932372
 C          3.6420866079       -3.4471001817       -1.1273833753
 C          2.8138637474       -4.2121651774       -0.0946760443
 H          2.0425808133       -4.7803433790       -0.6208591345
 H          3.4679927659       -4.9271266599        0.4092773637
 C          2.1111298902       -3.3586227180        0.9582477943
 H          1.3862473340       -2.6918650669        0.4858049005
 H          1.5355994507       -4.0264159288        1.6059417289
 C          3.0281418114       -2.5300068120        1.8549570471
 H          2.3974122545       -2.0765190401        2.6252252573
 H          3.7494086503       -3.1830273288        2.3515311478
 C          3.7945491043       -1.3963357901        1.1542055687
 H          4.6836683452       -1.7725144851        0.6535435856
 H          4.1239669720       -0.6895911185        1.9220002414
 H          3.9067477123       -4.1500858758       -1.9219229086
 H          4.5742290330       -3.1000993558       -0.6913369730
 H          3.5097994691       -1.9406754955       -2.6434708780
 H          1.9674234171       -2.6581062441       -2.2165606591
 O          1.7297757338       -0.2989521996       -1.8106514358
 C          1.2176939568        0.9251849385       -1.4088709281
 O          0.4625775815        1.4604246747       -2.2421428219
 O          2.7783689017        1.0975104154        1.8437419687
 C          1.0006904771        2.7274525792        0.3187929349
 C         -0.4999089888        2.5923948323        0.4171899376
 C         -1.3949847707        3.4967077611       -0.1388940499
 C         -2.7592467036        3.2915155484       -0.0228446061
 C         -3.2568415154        2.1830107734        0.6368115273
 C         -2.3696613693        1.2768928406        1.2075982051
 C         -1.0055081584        1.4960313227        1.1065126769
 H         -0.3245345881        0.7871225287        1.5554948635
 N         -2.8377667717        0.1417288369        1.8989886742
 S         -2.2910538572       -1.3720587860        1.4394354490
 O         -3.1099708621       -2.2998866962        2.1889660762
 O         -0.8688775845       -1.4683105234        1.6344891260
 C         -2.6930868850       -1.4796377947       -0.2927511427
 C         -1.8225160006       -0.9213499631       -1.2053992641
 C         -2.1612040813       -0.9226078454       -2.5486319000
 C         -3.3612551538       -1.4858950155       -2.9543579528
 C         -4.2249440669       -2.0489092716       -2.0258960729
 C         -3.8943957702       -2.0408826545       -0.6804103304
 H         -4.5340300158       -2.4679035340        0.0751198052
 H         -5.1556188086       -2.4884792578       -2.3468277679
 H         -3.6226447589       -1.4851490795       -4.0007935161
 H         -1.4816619169       -0.4699686213       -3.2538748927
 H         -0.8958914154       -0.4909332927       -0.8604535090
 H         -3.8424368035        0.1174678375        2.0066354780
 H         -4.3208370708        2.0185916114        0.7153139138
 H         -3.4443251098        3.9998749389       -0.4629766982
 H         -1.0252691954        4.3591331386       -0.6683084828
 H          1.3963780163        2.8718403183        1.3353774332
 C          1.4583191156        3.8774551983       -0.5522427440
 C          1.5393053662        5.2631007019        0.0133555139
 C          2.7942834997        4.5005806099       -0.2841850868
 H          3.3989071828        4.8057438461       -1.1249811484
 H          3.3665044157        4.1095223703        0.5446387858
 H          1.2850571547        6.0965590351       -0.6238111918
 H          1.2622048770        5.3972021765        1.0480920918
 H          1.1607122160        3.7608915639       -1.5880022354
