  62
        -98.94024020
 C         -2.4379771283       -1.1562977239        0.0685366426
 C         -3.3572921315       -0.4762759051        0.9069506520
 C         -4.1873198708        0.5518974479        0.2657237568
 C         -4.0176237722        0.8084398214       -1.0439904734
 C         -4.7543286596        1.8649148462       -1.8142931534
 C         -3.9901356359        3.1961761652       -1.8005113084
 C         -3.5376322788        3.6340074180       -0.4074076157
 H         -2.7919659828        2.9269046966       -0.0358371046
 H         -3.0376607541        4.5990332810       -0.5154452052
 C         -4.6725658105        3.7584759218        0.6188835834
 H         -4.5412662969        4.6890828328        1.1750579105
 H         -5.6319800489        3.8215297902        0.1043241407
 C         -4.7243746407        2.6284495211        1.6489741427
 H         -5.4125419562        2.9251951752        2.4449891640
 H         -3.7380242905        2.5000807084        2.1026984017
 C         -5.1940378101        1.2659628057        1.1233081701
 H         -6.1395639649        1.3838802295        0.5900282932
 H         -5.3652933069        0.6184536545        1.9883645820
 H         -4.6299188873        3.9661514961       -2.2352354803
 H         -3.1041929886        3.0933005905       -2.4312888550
 H         -4.8590572153        1.5273679033       -2.8467077275
 H         -5.7446835316        1.9972531310       -1.3829996229
 O         -3.1048298940        0.1609528376       -1.8095165605
 C         -2.2800528638       -0.8243229422       -1.2783871048
 O         -1.4761119972       -1.3007137297       -2.0989014276
 O         -3.4731053921       -0.7139676766        2.1398694293
 C         -1.5569524906       -2.2163781061        0.7049714496
 C         -0.1150780785       -1.9955431449        0.3200989711
 C          0.6685451273       -2.9452265728       -0.3203613238
 C          1.9860178824       -2.6650306127       -0.6394801861
 C          2.5488365077       -1.4409204056       -0.3311254999
 C          1.7763518726       -0.4844255338        0.3153190136
 C          0.4604797675       -0.7717821197        0.6421244134
 H         -0.1424594236       -0.0249640187        1.1460308135
 N          2.3323728463        0.7708759060        0.6164340146
 S          3.8264419562        0.8278930881        1.3780728381
 O          4.0410957352       -0.3334072679        2.2101686035
 O          3.8584729259        2.1107656533        2.0463461937
 C          4.9952500943        0.8444129545        0.0356056031
 C          4.8563633628        1.8160216647       -0.9359671754
 C          5.7630683161        1.8490305477       -1.9832581914
 C          6.7894050527        0.9177008052       -2.0389204321
 C          6.9175148914       -0.0489891826       -1.0534061733
 C          6.0129871380       -0.0883719018       -0.0036299500
 H          6.0693458584       -0.8252830168        0.7816496282
 H          7.7161422612       -0.7718347748       -1.0985528374
 H          7.4934328141        0.9458742712       -2.8554977719
 H          5.6660435069        2.5989553180       -2.7517822636
 H          4.0467984421        2.5222452263       -0.8551230603
 H          1.6843489529        1.4118763982        1.0502578495
 H          3.5717905392       -1.2182040456       -0.5866783096
 H          2.5815398282       -3.4100674214       -1.1446607970
 H          0.2427183827       -3.8972501937       -0.5904676797
 H         -1.6451923718       -2.0266070623        1.7886667072
 C         -2.0315433337       -3.6445134690        0.4829078614
 C         -3.4797273168       -3.9491020576        0.2455864502
 C         -2.4829668242       -4.1456035327       -0.8549802922
 H         -2.2252255325       -5.1564360448       -1.1355905263
 H         -2.4765947292       -3.4486728178       -1.6778059360
 H         -3.9046042130       -4.8208679800        0.7202099524
 H         -4.1622309049       -3.1144812351        0.1751291682
 H         -1.4921759760       -4.3487727910        1.1092495122
