  62
        -98.93582674
 C         -2.3758833976       -0.4876176466        0.9082391831
 C         -3.4324106069       -1.0812167814        0.1725919127
 C         -4.7315728486       -0.3904169573        0.2486526000
 C         -4.8519405522        0.7246702818        0.9896252664
 C         -6.0964522820        1.5563874896        1.0981038550
 C         -6.1182621571        2.6627301195        0.0339983493
 C         -5.8131930245        2.1662948479       -1.3793430267
 H         -5.8867025768        3.0261904057       -2.0486723882
 H         -4.7787277085        1.8169967747       -1.4182879168
 C         -6.7443265406        1.0509918387       -1.8749794804
 H         -7.0487232460        1.2783853681       -2.8987767694
 H         -7.6488133465        1.0259889060       -1.2662190393
 C         -6.1106852355       -0.3411857290       -1.8975919807
 H         -5.1563835883       -0.3005721825       -2.4285817447
 H         -6.7706117277       -1.0060435244       -2.4611814771
 C         -5.8718769405       -0.9880576707       -0.5273969811
 H         -6.7926039464       -0.9606289364        0.0586032254
 H         -5.6019640191       -2.0344908827       -0.6971041516
 H         -7.1005063916        3.1384904995        0.0509001643
 H         -5.3714924177        3.4140390835        0.3012693140
 H         -6.9677001902        0.9137483782        0.9876460720
 H         -6.1174213251        2.0155428811        2.0878650553
 O         -3.8202747645        1.2557377447        1.6956857365
 C         -2.5662150800        0.6723854105        1.6641680461
 O         -1.7108508306        1.2676916739        2.3518459877
 H          1.5301674874       -0.0303806302        1.0552039618
 C          1.1479453691       -0.0557027741        0.0450982719
 C         -0.1322424782       -0.5278747360       -0.2017123423
 C         -0.6073149432       -0.5222370818       -1.5096221805
 C          0.1897769666       -0.0618308113       -2.5416436000
 C          1.4774927124        0.3808797872       -2.2953477644
 C          1.9586722494        0.3858105558       -0.9914952233
 N          3.2541189815        0.8407174959       -0.7009433153
 S          4.1055713740        0.0431668304        0.5220640704
 O          3.8820326962       -1.3813015337        0.4256016016
 O          3.7845386246        0.6551648548        1.7869809841
 C          5.7829501144        0.4418781344        0.0684725311
 C          6.5226714031       -0.4698487136       -0.6607907836
 C          7.8155562937       -0.1377147381       -1.0341664953
 C          8.3422749502        1.0944088423       -0.6769769505
 C          7.5876696386        1.9987516778        0.0558030047
 C          6.2948049408        1.6728767660        0.4335985225
 H          5.6744409696        2.3384303781        1.0111153238
 H          8.0017106644        2.9543299138        0.3344361097
 H          9.3485906711        1.3504773302       -0.9685688771
 H          8.4058645296       -0.8398203394       -1.6005447879
 H          6.0745885906       -1.4187870782       -0.9081343572
 H          3.8188368127        0.9816390667       -1.5274703754
 H          2.1027840933        0.7264099798       -3.1045116884
 H         -0.1905632380       -0.0626431880       -3.5521530010
 H         -1.6002103744       -0.8955458908       -1.7088272589
 C         -0.9653145674       -1.0512845685        0.9399004337
 H         -0.5196642204       -0.6627725384        1.8706438185
 C         -0.9265547455       -2.5715871760        1.0310536758
 C         -0.5081691587       -3.4615927774       -0.0960825260
 C          0.3918975617       -3.2863643150        1.0878249092
 H          0.5028996865       -4.1066194976        1.7813126144
 H          1.2909319449       -2.6999449312        0.9569457259
 H         -0.2187315681       -3.0026706241       -1.0280475492
 H         -1.0368284073       -4.3946165107       -0.2170993696
 H         -1.7114269023       -2.9536321869        1.6766588037
 O         -3.3209202789       -2.1250266153       -0.5185195520
