  62
        -98.93962946
 C          2.6473490736        1.2222702809        0.2492900588
 C          2.5154331281        0.1760426275       -0.6976377871
 C          3.6946147802       -0.6874607637       -0.8590860833
 C          4.8104930032       -0.4472861697       -0.1488742486
 C          6.0964754876       -1.2244148470       -0.2256672111
 C          6.1133703529       -2.4875802924        0.6461026765
 C          5.2478972482       -3.6412728489        0.1374723207
 H          5.4942000154       -3.8465979593       -0.9047585282
 H          5.5211835560       -4.5254258453        0.7168700467
 C          3.7366473910       -3.4086509592        0.2754733997
 H          3.2669421913       -4.3028575956        0.6912207732
 H          3.5557005981       -2.5956181975        0.9825009799
 C          3.0207776161       -3.0904394056       -1.0373777342
 H          1.9669918108       -2.9019776037       -0.8161251605
 H          3.0770814498       -3.9539390178       -1.7038763170
 C          3.5743158651       -1.8658011252       -1.7774504476
 H          4.5391001547       -2.1003640291       -2.2266540534
 H          2.8722055383       -1.5992967740       -2.5712263854
 H          7.1483902623       -2.8332519135        0.6981244932
 H          5.8024385329       -2.2173389479        1.6579943637
 H          6.3016972026       -1.4929048018       -1.2623109176
 H          6.8857789910       -0.5549962338        0.1233024933
 O          4.9017113951        0.5764878305        0.7418057768
 C          3.8195333223        1.4056137524        0.9878645116
 O          4.0228694814        2.2584514171        1.8754337085
 H         -0.8030122745        2.1544263313       -0.9621328633
 C         -0.8570045872        1.4851625030       -0.1174940485
 C          0.2245556105        1.3676041708        0.7397488315
 C          0.1339986947        0.4762801445        1.8055515065
 C         -1.0036457480       -0.2830299816        1.9983226485
 C         -2.0776603277       -0.1706857670        1.1326357278
 C         -2.0001853575        0.7177442498        0.0697232224
 N         -3.0784186280        0.8231343155       -0.8226983051
 S         -4.6321277056        0.9751082490       -0.2169832783
 O         -5.3830380474        1.6335489603       -1.2639112001
 O         -4.6352829981        1.6194842587        1.0761892417
 C         -5.2040456440       -0.7042924689       -0.0643407485
 C         -5.1572686687       -1.5123761434       -1.1833258265
 C         -5.6082131585       -2.8188496909       -1.0845740130
 C         -6.0981887918       -3.2918894192        0.1237255417
 C         -6.1415221228       -2.4671238204        1.2372552283
 C         -5.6912563150       -1.1592368918        1.1451312766
 H         -5.7018275616       -0.4837109190        1.9858137679
 H         -6.5229146657       -2.8367247346        2.1755685409
 H         -6.4482979551       -4.3094046874        0.1977474756
 H         -5.5754625183       -3.4633306358       -1.9483149795
 H         -4.7718066807       -1.1071140342       -2.1040175230
 H         -2.9160715267        1.4517314373       -1.5953242471
 H         -2.9666108865       -0.7637188816        1.2728443817
 H         -1.0550940430       -0.9730450240        2.8270857919
 H          0.9763308639        0.3824291728        2.4783300045
 C          1.4965658592        2.1614367397        0.5702053457
 H          1.7513497954        2.5970484772        1.5506250771
 C          1.3545565278        3.3301527184       -0.3934204323
 C          2.5601397274        3.9352753085       -1.0468131506
 C          1.5563665867        3.1896428990       -1.8712478346
 H          0.9159556783        3.7574131754       -2.5311477622
 H          1.8202143285        2.2154412080       -2.2507564559
 H          3.5165426705        3.4699410147       -0.8573091002
 H          2.6087924590        5.0099181495       -1.1388073278
 H          0.5847668767        4.0253770905       -0.0702648329
 O          1.4824274809       -0.0374682933       -1.3814872184
