  62
        -98.93866298
 C          2.1215606846        0.9453186174       -0.0027754454
 C          2.8590355271        0.2597891768        0.9893974684
 C          3.5629105140       -0.9596478871        0.5585986793
 C          3.4424257004       -1.3736221675       -0.7145912782
 C          4.0264099963       -2.6054394709       -1.3607147373
 C          5.4780919158       -2.9672184283       -1.0184644317
 C          6.4027187188       -1.7679471770       -0.7632935916
 H          7.2996679930       -1.8754221532       -1.3758880801
 H          5.9087312149       -0.8437882762       -1.0680619887
 C          6.8427452621       -1.6538480445        0.6981650200
 H          7.0981330347       -2.6501142557        1.0656265165
 H          7.7490957573       -1.0455924118        0.7454155817
 C          5.8225071202       -1.0189641948        1.6421188989
 H          6.2089445307       -1.1020496258        2.6607180306
 H          5.7271378543        0.0475915893        1.4213567375
 C          4.4123009813       -1.6301111262        1.6002028679
 H          3.9291235662       -1.4257355422        2.5597343257
 H          4.4524301137       -2.7070403506        1.4555314792
 H          5.4951210686       -3.6210461208       -0.1475959723
 H          5.8616052095       -3.5515782695       -1.8565467026
 H          3.9361787278       -2.4301193147       -2.4355441441
 H          3.3785089653       -3.4537963322       -1.1199143849
 O          2.6929602081       -0.6980771373       -1.6321240018
 C          2.0192174963        0.4696672429       -1.3092671401
 O          1.3832155891        0.9738917429       -2.2534658309
 O          2.9144696891        0.6397106940        2.1905711262
 C          1.3723135770        2.2105315176        0.3757021161
 C         -0.1065978385        2.0047907109        0.1574513781
 C         -0.9097594743        2.8785071559       -0.5623121475
 C         -2.2542200207        2.6030619266       -0.7461400594
 C         -2.8268430947        1.4633537603       -0.2130432419
 C         -2.0339797303        0.5862643681        0.5160276376
 C         -0.6896490348        0.8653967311        0.6997212142
 H         -0.0713410723        0.1766737115        1.2634594196
 N         -2.6094369027       -0.5722637487        1.0729903355
 S         -3.4274841814       -1.6028797504        0.0255989385
 O         -3.3693479519       -2.9038941528        0.6573378643
 O         -2.9085548552       -1.5178540277       -1.3201033904
 C         -5.1053015162       -1.0090664331        0.0774337407
 C         -5.7429629415       -0.6440130732       -1.0919077654
 C         -7.0514252992       -0.1901736813       -1.0275418915
 C         -7.6950088547       -0.1113492661        0.1979927307
 C         -7.0408757571       -0.4841328820        1.3629847257
 C         -5.7334414473       -0.9394942303        1.3056936963
 H         -5.1899355532       -1.2419766761        2.1851120756
 H         -7.5446652788       -0.4211682004        2.3140076423
 H         -8.7124666037        0.2432911031        0.2453918851
 H         -7.5611709984        0.0998526478       -1.9322688558
 H         -5.1991719026       -0.7166879279       -2.0204538934
 H         -1.9640189769       -1.1024613668        1.6415472508
 H         -3.8714223285        1.2427924145       -0.3605269337
 H         -2.8647179305        3.2864638467       -1.3162987570
 H         -0.4815633160        3.7689860663       -0.9918331147
 H          1.5443313263        2.3399864595        1.4547416585
 C          1.9393793923        3.4079506365       -0.3560911881
 C          1.8294679295        4.7775886716        0.2424000013
 C          3.1567791762        4.0840186946        0.1972926560
 H          3.9058709658        4.4425049344       -0.4927021240
 H          3.5640223184        3.6947808514        1.1191501338
 H          1.6689993501        5.6169859779       -0.4170088120
 H          1.3369337090        4.8661454985        1.1987423328
 H          1.8682287111        3.3090111643       -1.4334615455
