  62
        -98.94076598
 C         -2.3844811408       -1.2696778095        0.1634585797
 C         -2.2245372001        0.1284819115       -0.0128313346
 C         -3.2926286212        0.9724570848        0.5504151899
 C         -4.3243347940        0.4013311645        1.1959097203
 C         -5.5034668551        1.1388900958        1.7594067913
 C         -6.6366116863        1.2481204713        0.7294222877
 C         -6.1805123484        1.7472434173       -0.6415995930
 H         -5.5194558692        1.0026494513       -1.0909406606
 H         -7.0674212192        1.8132033748       -1.2753836936
 C         -5.4674474074        3.1064498900       -0.6177695681
 H         -5.8594962617        3.7225314222       -1.4297187280
 H         -5.6868543386        3.6242763266        0.3166109229
 C         -3.9514029440        3.0307076143       -0.8090360286
 H         -3.7228905379        2.4353568562       -1.6969033238
 H         -3.5795365610        4.0426307698       -0.9913448470
 C         -3.1579726220        2.4588639050        0.3728502572
 H         -3.4360733843        2.9825598043        1.2898913379
 H         -2.0960240116        2.6436671855        0.1826587227
 H         -7.0851733870        0.2602074395        0.6020489571
 H         -7.4000824321        1.9191739173        1.1269485511
 H         -5.8671535738        0.5904381271        2.6299530692
 H         -5.1868804755        2.1314885432        2.0740229419
 O         -4.4302404900       -0.9402204937        1.3701290861
 C         -3.4682209377       -1.8011294135        0.8707913384
 O         -3.6853722725       -3.0034366187        1.1201669464
 O         -1.2575736407        0.6662788140       -0.6126863179
 C         -1.3610520380       -2.2803810742       -0.3318987274
 C          0.0176388760       -1.8548216988        0.1054278593
 C          0.4164171386       -2.0829520018        1.4187040184
 C          1.6530505991       -1.6550452339        1.8641510049
 C          2.5104335428       -0.9792818086        1.0134733904
 C          2.1119993061       -0.7286052381       -0.2923172450
 C          0.8817149091       -1.1861533801       -0.7459821789
 H          0.5758337615       -0.9756150248       -1.7589548526
 N          2.9674150956       -0.0286609931       -1.1594218719
 S          3.7509968089        1.3421164311       -0.5912941850
 O          3.0108523713        2.0056952666        0.4562655073
 O          4.0390288153        2.1256430381       -1.7735445942
 C          5.2835477756        0.7040100848        0.0577701576
 C          5.6806648178        1.0381864923        1.3376146386
 C          6.8821773178        0.5416662817        1.8189582062
 C          7.6625836770       -0.2750160149        1.0153135621
 C          7.2515367294       -0.5989151866       -0.2691551278
 C          6.0520053775       -0.1050891483       -0.7562295515
 H          5.6988760074       -0.3307388395       -1.7484301674
 H          7.8612077113       -1.2341416116       -0.8913402015
 H          8.5964420087       -0.6610187553        1.3923840754
 H          7.2030413016        0.7936089374        2.8170199310
 H          5.0386305810        1.6722769816        1.9285217390
 H          2.5581329684        0.1496033440       -2.0654798154
 H          3.4684907400       -0.6264251258        1.3586870936
 H          1.9513202934       -1.8428229012        2.8844901319
 H         -0.2626009519       -2.5909716301        2.0900831096
 H         -1.6106239122       -3.2142729814        0.1961502994
 C         -1.4432897243       -2.5904447686       -1.8194652780
 C         -2.7777311954       -2.7581506593       -2.4814405062
 C         -1.9018122199       -1.5984081912       -2.8435825834
 H         -1.4190072287       -1.6050723723       -3.8103650408
 H         -2.1821169888       -0.6130952034       -2.5064753808
 H         -2.9030965715       -3.5552090930       -3.1985293911
 H         -3.6550236737       -2.5686785632       -1.8796951004
 H         -0.6616873003       -3.2784109648       -2.1276888692
