  62
        -98.94433579
 C         -0.7996830204       -1.4992862094        0.1652750814
 C         -1.0851981106       -0.3772272900       -0.6508638693
 C         -2.2338283208        0.4375232700       -0.2259869099
 C         -2.8282877910        0.2015220805        0.9559269601
 C         -3.9712272513        0.9801351406        1.5473611495
 C         -5.3524206511        0.5102342700        1.0707490995
 C         -5.6931034609        0.8684070391       -0.3762810508
 H         -6.7579847308        0.6702984388       -0.5136376109
 H         -5.5383131211        1.9364007591       -0.5318270714
 C         -4.9046417405        0.0740112087       -1.4270541002
 H         -4.4631670604       -0.8098448709       -0.9609242896
 H         -5.5872766903       -0.2821080419       -2.2020262701
 C         -3.8009538506        0.8673673886       -2.1277455304
 H         -4.2466637406        1.6765374282       -2.7107452210
 H         -3.2870727803        0.1975562883       -2.8223706000
 C         -2.7514599409        1.4684485094       -1.1820883806
 H         -1.9080825408        1.8185207992       -1.7815509306
 H         -3.1768662812        2.3129642596       -0.6417478611
 H         -5.4190208108       -0.5720587299        1.2033527501
 H         -6.0984902613        0.9711097002        1.7221616191
 H         -3.9155664914        0.8421953512        2.6290394995
 H         -3.8508191715        2.0392503305        1.3208651889
 O         -2.4271990809       -0.7997482389        1.7832720007
 C         -1.4639781606       -1.7068276089        1.3788714614
 O         -1.2773553706       -2.6431995184        2.1815432520
 H          1.7236008695       -0.3611403494       -0.8156470788
 C          2.2012275095       -0.9680923989       -0.0620413483
 C          1.5948125597       -2.1396088288        0.3705175022
 C          2.2308693797       -2.9114734481        1.3356915828
 C          3.4478610595       -2.5167182175        1.8614361728
 C          4.0421681493       -1.3398300776        1.4453076822
 C          3.4114252493       -0.5595218783        0.4804674917
 N          3.9920942591        0.6439804316        0.0689790611
 S          3.1868459890        1.8431743309       -0.7474898097
 O          2.9095351293        1.4325349901       -2.1001679795
 O          4.0639328787        2.9903049212       -0.6180925702
 C          1.6703769387        2.2162058711        0.1208004698
 C          0.7688803287        3.0156592205       -0.5522038508
 C         -0.3861296415        3.4244135106        0.0929259287
 C         -0.6305642117        3.0121510313        1.3930464989
 C          0.2794144284        2.2042375919        2.0541001995
 C          1.4488174686        1.8116785718        1.4211581300
 H          2.1657800686        1.1893156422        1.9316374105
 H          0.0854472783        1.8771363324        3.0634315997
 H         -1.5321308718        3.3231217014        1.8965820486
 H         -1.0895286916        4.0599210602       -0.4204872317
 H          0.9887181588        3.2958824200       -1.5701070509
 H          4.7620209689        0.9871050821        0.6218029010
 H          4.9842601491       -1.0199772372        1.8631755922
 H          3.9329629895       -3.1241190370        2.6101413932
 H          1.7542424198       -3.8148247980        1.6860638932
 C          0.2487281199       -2.5488824894       -0.1745174678
 H         -0.0610040600       -3.4592706692        0.3576787627
 C          0.3371964702       -2.8694618902       -1.6527847876
 C          0.8682502906       -4.2059202003       -2.0723125868
 C         -0.5878182995       -3.8912787907       -2.2386198772
 H         -0.9730657393       -3.7259212814       -3.2335881474
 H         -1.2915581495       -4.3695397705       -1.5725019371
 H          1.4877776607       -4.2584753907       -2.9544295766
 H          1.1496957806       -4.9006106398       -1.2952454563
 H          0.5857238401       -2.0143135705       -2.2674839180
 O         -0.4440816704       -0.0534370604       -1.6851199093
