  62
        -98.93895551
 C         -2.3426959228       -0.7624240273        0.6087302159
 C         -3.4267187637       -0.9899529996       -0.2746138764
 C         -4.6721434046       -0.2699552373        0.0350231247
 C         -4.7224313575        0.5462947638        1.1022043477
 C         -5.9059950367        1.3823446198        1.4923628686
 C         -5.8404116588        2.7748330714        0.8493758890
 C         -5.5557790823        2.7494598595       -0.6524055574
 H         -4.5476223200        2.3619245142       -0.8172137408
 H         -5.5626186366        3.7842372700       -1.0017656510
 C         -6.5564352823        1.9252681327       -1.4744877094
 H         -6.8330194642        2.4960599740       -2.3634041116
 H         -7.4671247264        1.7645309288       -0.8964367543
 C         -6.0198766768        0.5773984215       -1.9595971819
 H         -5.0584677998        0.7238879603       -2.4581151844
 H         -6.7172458472        0.1813331138       -2.7025458273
 C         -5.8432885440       -0.4973691744       -0.8796493020
 H         -5.6481643612       -1.4472298214       -1.3855801379
 H         -6.7659484362       -0.5972627247       -0.3047328837
 H         -5.0466322180        3.3444390342        1.3382821443
 H         -6.7878103103        3.2845923409        1.0338079941
 H         -5.9050087177        1.4926616592        2.5780645358
 H         -6.8189176978        0.8733843661        1.1893378849
 O         -3.6649546456        0.7384133541        1.9317346861
 C         -2.4607838346        0.0968480086        1.7064489043
 O         -1.5795179366        0.3628157627        2.5498606730
 O         -3.3852575433       -1.7504516628       -1.2779636238
 C         -0.9833012706       -1.4248234198        0.4551748383
 C         -0.1191901355       -0.7334313358       -0.5727798367
 C         -0.4990553942       -0.6446382855       -1.9080957237
 C          0.3363919521       -0.0462955717       -2.8333056890
 C          1.5712092639        0.4501754804       -2.4541844911
 C          1.9569961140        0.3708537546       -1.1213993929
 C          1.1058247536       -0.2074529134       -0.1902206461
 H          1.4144121404       -0.2498336764        0.8446077603
 N          3.1969147514        0.8749132070       -0.6977952819
 S          4.0127187241        0.0418729488        0.5243764908
 O          3.8804220790       -1.3833345914        0.3236598493
 O          3.5802633112        0.5496355414        1.8024850686
 C          5.6912434597        0.5542980840        0.2081456663
 C          6.1336326717        1.7559625465        0.7282120750
 C          7.4292578110        2.1662553698        0.4565892152
 C          8.2555074428        1.3737570086       -0.3265082619
 C          7.7978845813        0.1695765856       -0.8401721267
 C          6.5030526579       -0.2464328815       -0.5732152732
 H          6.1070558940       -1.1788615350       -0.9422928759
 H          8.4436002791       -0.4459124169       -1.4455304041
 H          9.2636439949        1.6952384694       -0.5350879768
 H          7.7896200565        3.1000422202        0.8570133434
 H          5.4585840025        2.3326252773        1.3391019185
 H          3.8083962430        1.1177108939       -1.4651783749
 H          2.2292142591        0.9007539483       -3.1818184080
 H          0.0295447512        0.0192853910       -3.8663616163
 H         -1.4527870907       -1.0492650536       -2.2096958906
 H         -0.4861700140       -1.3075401153        1.4284958909
 C         -1.0638673055       -2.9076751661        0.1395599024
 C          0.1606468507       -3.7485466365        0.3342519267
 C         -1.0104935237       -3.9025345051        1.2570633628
 H         -1.6129037728       -4.7953813689        1.1814757013
 H         -0.9198426343       -3.5200694200        2.2637918363
 H          0.3612121571       -4.5362129157       -0.3758944772
 H          1.0502504952       -3.2611484544        0.7078691336
 H         -1.7028166201       -3.1335881658       -0.7036897151
