  62
        -98.94022376
 C         -2.4770598043       -1.0926938930        0.0820848919
 C         -2.7228704396       -0.0325717471       -0.8232251306
 C         -4.1317633844        0.3576145288       -0.9804545527
 C         -5.0812611869       -0.3082541848       -0.2979023427
 C         -6.5454553436        0.0204794333       -0.3222249047
 C         -6.9100363950        1.0083664165        0.7949161277
 C         -5.9914259938        2.2283738227        0.8641128729
 H         -6.3615212627        2.8689930539        1.6675197147
 H         -4.9877475685        1.9039078764        1.1484923549
 C         -5.9103943126        3.0365567568       -0.4384272787
 H         -6.7555369741        2.7884658454       -1.0814536714
 H         -5.9874900354        4.0986459702       -0.1966532283
 C         -4.6081853584        2.8516362629       -1.2199442356
 H         -4.5639269104        3.6222512962       -1.9941550497
 H         -3.7547277624        3.0069784936       -0.5548873855
 C         -4.4338244174        1.4952369099       -1.9148186701
 H         -5.3154223982        1.2747008120       -2.5200767636
 H         -3.5690223414        1.5717649186       -2.5804127755
 H         -6.8553210022        0.4839512395        1.7517071533
 H         -7.9407029222        1.3345543439        0.6445553337
 H         -6.8019288557        0.4412985933       -1.2923482372
 H         -7.1074966637       -0.9034173373       -0.1761911379
 O         -4.8064935235       -1.3383723247        0.5433757847
 C         -3.5019739301       -1.7469264753        0.7646514611
 O         -3.3862640118       -2.6849016081        1.5798136557
 H          1.4987180252       -0.8586085543       -0.4634736477
 C          1.0912917118       -0.2125313036        0.2958269943
 C         -0.1862994503       -0.4187339852        0.7906290726
 C         -0.6643543927        0.4413464873        1.7764527573
 C          0.1115149348        1.4851305182        2.2411422495
 C          1.3901651206        1.6826423608        1.7497999086
 C          1.8792336851        0.8276079734        0.7703086657
 N          3.1657603319        1.0080823816        0.2373316474
 S          4.0633418443       -0.3636013436       -0.1682606662
 O          3.6987604017       -0.7900545526       -1.4955659038
 O          3.9487375952       -1.3557977259        0.8768055695
 C          5.7095522059        0.3232499599       -0.1891656313
 C          6.5044044294        0.2090736466        0.9358856504
 C          7.7717455994        0.7700621138        0.9213344407
 C          8.2194494229        1.4344431407       -0.2106484519
 C          7.4106270584        1.5402876579       -1.3325131777
 C          6.1427714368        0.9808027116       -1.3251014625
 H          5.4829254118        1.0296736213       -2.1756716769
 H          7.7632327867        2.0549297247       -2.2117404097
 H          9.2062075960        1.8697978067       -0.2197823561
 H          8.4040870774        0.6864055873        1.7905109133
 H          6.1181567307       -0.3248288195        1.7892680835
 H          3.7175019464        1.6759595796        0.7581570670
 H          1.9992448446        2.4947728193        2.1167497826
 H         -0.2778909265        2.1462273785        3.0010195154
 H         -1.6587619991        0.2795267578        2.1713490717
 C         -1.0552565898       -1.5621199817        0.3250140291
 H         -1.1103797385       -2.2974916455        1.1423669386
 C         -0.5199796650       -2.2544755328       -0.9114399932
 C          0.5118802031       -3.3336516112       -0.7881072053
 C         -0.8949462974       -3.6815647010       -1.1694733653
 H         -1.0942011819       -3.9872223413       -2.1855601916
 H         -1.5189473740       -4.1692363046       -0.4344309854
 H          1.2851493516       -3.3939577003       -1.5399333061
 H          0.8512380977       -3.5903898761        0.2045886733
 H         -0.4601984086       -1.5897046799       -1.7663789658
 O         -1.8157804311        0.5592483812       -1.4648292010
