  62
        -98.94744918
 C          1.0031628870        1.5033046444        0.4276672163
 C          1.0638487439        0.4146342574       -0.4756250109
 C          1.9791818083       -0.6691564073       -0.0977809246
 C          2.5894773406       -0.6422051098        1.1006089432
 C          3.5053051321       -1.7015637442        1.6518515177
 C          4.9673407551       -1.5569079921        1.2074252035
 C          5.2380559095       -1.9148119905       -0.2542417178
 H          6.3216756622       -1.9737872827       -0.3737253884
 H          4.8324450294       -2.9048484694       -0.4642621898
 C          4.6826379252       -0.9022388263       -1.2653636396
 H          4.4573112652        0.0362778808       -0.7536446403
 H          5.4453276994       -0.6823164779       -2.0157084226
 C          3.4339939067       -1.3714337779       -2.0121580047
 H          3.6821111171       -2.2371973018       -2.6296513585
 H          3.1100944292       -0.5652822982       -2.6748697944
 C          2.2511857673       -1.7427094482       -1.1067333097
 H          1.3591636703       -1.8397277371       -1.7290334828
 H          2.4404906153       -2.6938025404       -0.6094954725
 H          5.2891984386       -0.5304652441        1.3983698502
 H          5.5669956244       -2.2158136352        1.8397583317
 H          3.4637051084       -1.6109018369        2.7397653284
 H          3.1332544714       -2.6880086115        1.3733897906
 O          2.4219319444        0.3761181859        1.9870981266
 C          1.6639532456        1.4871726790        1.6547058694
 O          1.6509550603        2.3814409159        2.5277232569
 O          0.3961983025        0.3503647025       -1.5401019121
 C          0.1687240451        2.7234468278        0.0938576185
 C         -1.2896648011        2.3740071361       -0.0820297591
 C         -2.1394951620        3.1333409842       -0.8794835379
 C         -3.4804654394        2.8094527422       -0.9836210205
 C         -3.9991036739        1.7154150290       -0.3148324191
 C         -3.1554993119        0.9469986675        0.4797267613
 C         -1.8188177394        1.2899356707        0.6030766907
 H         -1.1828087722        0.6920273269        1.2384085669
 N         -3.6406530872       -0.1772595580        1.1683953158
 S         -2.7223651156       -1.5558623709        1.3296597144
 O         -3.6716259711       -2.5565204480        1.7760686211
 O         -1.6041785182       -1.3296808524        2.2132694575
 C         -2.1365479565       -2.0394034329       -0.2873122770
 C         -1.1164819452       -2.9686643762       -0.3159566004
 C         -0.6875899387       -3.4643576962       -1.5360909958
 C         -1.2759789673       -3.0141129726       -2.7075013336
 C         -2.2921874517       -2.0748097604       -2.6635115568
 C         -2.7379166926       -1.5890086843       -1.4441423498
 H         -3.5296170502       -0.8598153126       -1.4008808346
 H         -2.7428662423       -1.7164038776       -3.5749242454
 H         -0.9349800214       -3.3930640868       -3.6580772201
 H          0.1036439150       -4.1963990234       -1.5686094484
 H         -0.6745819252       -3.2775578297        0.6184125748
 H         -4.6113855803       -0.4005290073        1.0031485845
 H         -5.0437998022        1.4574465728       -0.4016007686
 H         -4.1296759875        3.4114238730       -1.6007349702
 H         -1.7491752108        3.9824824690       -1.4163221199
 H          0.2495958066        3.3928738902        0.9642125153
 C          0.7473890643        3.4278972306       -1.1195386906
 C          0.7432631831        4.9233610337       -1.2123569568
 C          2.0275629833        4.1916290263       -0.9676038055
 H          2.7572831151        4.1417360341       -1.7616748941
 H          2.4612327508        4.2349096495        0.0215059191
 H          0.5932034440        5.3796161409       -2.1793298087
 H          0.3169590191        5.4770026781       -0.3891475020
 H          0.6118776583        2.8570564805       -2.0308477084
