  62
        -98.94027067
 C          2.3596800304        0.0392266708        0.1866339983
 C          3.4330699404        0.2227860422        1.0903771280
 C          4.7222460705       -0.3494126181        0.6818332586
 C          4.8064506905       -1.0090923496       -0.4882644406
 C          6.0692618305       -1.5920422100       -1.0521505000
 C          6.7967519203       -0.5801163010       -1.9486132114
 C          6.9712685301        0.7981507098       -1.3107147131
 H          7.5215055599        1.4180797290       -2.0218683539
 H          5.9885867300        1.2568010798       -1.1784699736
 C          7.7095975002        0.7863666016        0.0350678968
 H          8.2549287904       -0.1509820381        0.1504182280
 H          8.4460703001        1.5926361818        0.0376188657
 C          6.8098356803        1.0016360530        1.2532944467
 H          6.1926025901        1.8906559227        1.1008266656
 H          7.4491149803        1.1920608142        2.1194804364
 C          5.8867606306       -0.1687815367        1.6146895582
 H          6.4699780607       -1.0889911765        1.6866602393
 H          5.4528669606        0.0415314744        2.5967040080
 H          7.7748752403       -0.9895470812       -2.2074264809
 H          6.2231612601       -0.4599616723       -2.8705163115
 H          6.7175664007       -1.8999900389       -0.2341203297
 H          5.8074499806       -2.4685484208       -1.6470320989
 O          3.7483099704       -1.1813539608       -1.3217189403
 C          2.5007520804       -0.6595887307       -1.0121509508
 O          1.6223923303       -0.8854673719       -1.8658157004
 O          3.3160411304        0.8308860335        2.1889581972
 C          1.0032822503        0.6195101410        0.5354594877
 C         -0.0528389495       -0.4560972291        0.6058265892
 C          0.2412899808       -1.6661660583        1.2298794707
 C         -0.7139948590       -2.6579074983        1.3365004420
 C         -1.9934088091       -2.4570003692        0.8484446019
 C         -2.3001816294       -1.2511101500        0.2316007104
 C         -1.3310301596       -0.2647937800        0.1062666691
 H         -1.6010687098        0.6575889294       -0.3802819420
 N         -3.5850814495       -1.0070474409       -0.2791646898
 S         -4.2132018298        0.5520478692       -0.1006176516
 O         -3.8188515100        1.3481954779       -1.2353745127
 O         -3.8665198597        1.0759975309        1.2007359577
 C         -5.9639109597        0.2166974088       -0.1777962710
 C         -6.6496564495       -0.0270107299        0.9976855693
 C         -8.0041184195       -0.3137898302        0.9371003398
 C         -8.6465939996       -0.3536897818       -0.2913979101
 C         -7.9456552298       -0.1058775632       -1.4622451304
 C         -6.5908334898        0.1816225671       -1.4088695909
 H         -6.0069287700        0.3889703161       -2.2905497113
 H         -8.4493223499       -0.1343706945       -2.4149902204
 H         -9.7010236796       -0.5760770421       -0.3360480497
 H         -8.5523706494       -0.5031604592        1.8458719901
 H         -6.1115892295        0.0268306714        1.9305254392
 H         -4.2550331793       -1.7175618707       -0.0184829388
 H         -2.7432817489       -3.2280483992        0.9400437329
 H         -0.4647574088       -3.5927741177        1.8159298832
 H          1.2349286909       -1.8195109876        1.6290850208
 H          1.1162894403        1.0427116123        1.5461020472
 C          0.6508334600        1.7411103297       -0.4197380336
 C         -0.2163442502        2.8774930001        0.0300532850
 C          1.2467831298        3.0989668501       -0.2051857354
 H          1.5505171396        3.6719287791       -1.0683878562
 H          1.8881824198        3.2274819213        0.6546200344
 H         -0.9253331303        3.2919948491       -0.6716811354
 H         -0.5749151201        2.8603729113        1.0487111751
 H          0.5456434799        1.3956935284       -1.4428941732
