  62
        -98.94091454
 C         -2.2898694438       -0.8721544413       -0.1961029429
 C         -3.5951729432       -1.2260888161        0.2227009381
 C         -4.6851710022       -0.4121709493       -0.3258291401
 C         -4.4056380704        0.5837134892       -1.1864550844
 C         -5.4100748128        1.4853202045       -1.8519153799
 C         -5.8405115674        2.6825608392       -0.9932136073
 C         -6.7556029425        2.3430632175        0.1840021454
 H         -7.1515348396        3.2868422136        0.5641161082
 H         -7.6015876706        1.7551670606       -0.1731813990
 C         -6.0591963595        1.6013608714        1.3334903677
 H         -4.9766998755        1.7125359125        1.2350165865
 H         -6.3420134504        2.0567807935        2.2852305589
 C         -6.3980117097        0.1134141624        1.4246075977
 H         -5.8239051874       -0.3192746110        2.2478541895
 H         -7.4589335907       -0.0075668016        1.6539337411
 C         -6.0788797478       -0.6854799994        0.1540656338
 H         -6.8026234893       -0.4553073715       -0.6272629013
 H         -6.1451675074       -1.7498121167        0.3920925419
 H         -4.9443179721        3.1878288656       -0.6254941678
 H         -6.3692960745        3.3790038891       -1.6480342676
 H         -4.9326772256        1.8653033137       -2.7577020083
 H         -6.2885882322        0.9065250286       -2.1383362678
 O         -3.1371208315        0.8815448930       -1.5776982881
 C         -2.0483632977        0.1799386123       -1.0789509900
 O         -0.9452761997        0.5825048811       -1.4978371691
 O         -3.8359553431       -2.1738255085        1.0172589605
 C         -1.1088980178       -1.6599268222        0.3419244399
 C         -0.1623442382       -0.7303558108        1.0593948944
 C         -0.6617523198        0.0591302871        2.0928952664
 C          0.1576355271        0.9448265079        2.7636793769
 C          1.4907562583        1.0667741954        2.4123997080
 C          2.0032064894        0.2752242887        1.3919763871
 C          1.1799968828       -0.6276589628        0.7317136837
 H          1.5982707320       -1.2246249252       -0.0597223571
 N          3.3704338922        0.3514406497        1.0593699684
 S          3.8646315728        0.4106729655       -0.5545217606
 O          3.4024603353        1.6317327674       -1.1788075499
 O          3.5227170381       -0.8239198386       -1.2112467432
 C          5.6303784215        0.4834046969       -0.3091888761
 C          6.2738193408       -0.6605350869        0.1239486509
 C          7.6415583481       -0.6185144981        0.3410399902
 C          8.3399512491        0.5599452766        0.1220223826
 C          7.6810372012        1.6991679444       -0.3141070576
 C          6.3121658026        1.6640825157       -0.5313172177
 H          5.7583110396        2.5227978775       -0.8754813463
 H          8.2265924192        2.6130857639       -0.4858200703
 H          9.4048540420        0.5897097222        0.2905743364
 H          8.1577546367       -1.5026572866        0.6787903523
 H          5.6910544848       -1.5543772464        0.2731236041
 H          3.8306630371        1.1028252351        1.5583716069
 H          2.1294504799        1.7694125554        2.9265747363
 H         -0.2443974758        1.5536694196        3.5597108391
 H         -1.7075663519       -0.0277421338        2.3558089280
 H         -1.5348392102       -2.3566424366        1.0794867302
 C         -0.4571216989       -2.4627750484       -0.7631046366
 C          0.2937860446       -3.7177707822       -0.4363429451
 C         -1.0317165157       -3.7966779440       -1.1306469569
 H         -1.0547294741       -4.0776932048       -2.1728865737
 H         -1.8865615896       -4.1393649409       -0.5660369148
 H          1.1865434185       -3.9411711956       -1.0008039610
 H          0.3409980014       -4.0136969961        0.6007307905
 H         -0.0826850660       -1.8402186332       -1.5692992537
