  62
        -98.94263330
 C         -1.9523886749       -1.5565749840       -0.0471262798
 C         -1.5791837493       -0.2765122883       -0.5294724121
 C         -2.6744584149        0.7004277885       -0.6550616342
 C         -3.9312432102        0.3357744290       -0.3468664193
 C         -5.1262799985        1.2425827564       -0.3906240009
 C         -5.3599210775        1.9161414518        0.9688250628
 C         -4.1038927371        2.5514446793        1.5653127117
 H         -4.3943798220        3.0236317991        2.5064114234
 H         -3.3871537529        1.7638792700        1.8096316466
 C         -3.4269708212        3.5891206292        0.6592125868
 H         -3.1642213136        4.4603390400        1.2630576319
 H         -4.1284399492        3.9256708816       -0.1051088615
 C         -2.1386940959        3.1063282053       -0.0104784076
 H         -1.6379910135        3.9780433524       -0.4390583896
 H         -1.4711216796        2.6790651472        0.7418542141
 C         -2.3114707417        2.0774575552       -1.1346649530
 H         -3.0434330887        2.4403582318       -1.8590266348
 H         -1.3461804238        1.9705137648       -1.6378019843
 H         -5.7293767192        1.1635694215        1.6695038447
 H         -6.1338054306        2.6767164333        0.8495286778
 H         -4.9772843759        1.9963201315       -1.1612042923
 H         -6.0031399734        0.6444914751       -0.6449082461
 O         -4.2524558471       -0.9069208408        0.0966483714
 C         -3.2726934399       -1.8666162208        0.2894114815
 O         -3.6963070771       -2.9419950155        0.7588959594
 H          1.6527397644       -2.3444972919       -0.7421584200
 C          1.5221757159       -1.9660114239        0.2594913046
 C          0.2839923671       -2.0518640442        0.8740337075
 C          0.1387029428       -1.5241785398        2.1540110413
 C          1.2031670849       -0.9208399202        2.7959132050
 C          2.4374475139       -0.8314238238        2.1762573192
 C          2.5913584260       -1.3529994812        0.8993201287
 N          3.8401797718       -1.2664683106        0.2548852092
 S          4.5832240371        0.2301167166        0.1527553931
 O          5.6092820928        0.0653843537       -0.8529936238
 O          5.0395809166        0.6242104238        1.4624186735
 C          3.3334182137        1.3593496196       -0.4283519011
 C          2.6597042339        2.1594412472        0.4707171537
 C          1.6766944198        3.0129929984       -0.0019105472
 C          1.3841292324        3.0475811750       -1.3554994439
 C          2.0643838414        2.2313494615       -2.2446363471
 C          3.0471714781        1.3754009198       -1.7783184415
 H          3.6062263827        0.7333721729       -2.4403278554
 H          1.8278997660        2.2557907900       -3.2965134000
 H          0.6201949334        3.7157960626       -1.7211296422
 H          1.1397537731        3.6458587569        0.6866498031
 H          2.9202050415        2.1072588585        1.5152868754
 H          3.8485282037       -1.7089398397       -0.6532076418
 H          3.2772990465       -0.3573506991        2.6577912682
 H          1.0725381851       -0.5135647337        3.7874128339
 H         -0.8291284907       -1.5817978977        2.6345638363
 C         -0.9233636505       -2.6488184862        0.1954111009
 H         -1.4040415206       -3.3422927044        0.9047908847
 C         -0.5769927815       -3.4659933030       -1.0403493089
 C         -1.6059899996       -3.7326260141       -2.0968797020
 C         -0.4343887613       -2.8495996428       -2.3985420027
 H          0.3342735667       -3.2301907908       -3.0558664310
 H         -0.5979012628       -1.7872006749       -2.4858530235
 H         -1.6405113643       -4.7156573964       -2.5421179455
 H         -2.5772218966       -3.2755997762       -1.9753799321
 H          0.0915009484       -4.2888950545       -0.8044191566
 O         -0.4065127350        0.0481947470       -0.8443806787
