  62
        -98.94643229
 C          1.5565001677        1.0969642686        0.0330034893
 C          2.6099818621        0.8135110877        0.9393636872
 C          3.3287431496       -0.4484365746        0.7227944401
 C          2.9315252936       -1.2684536318       -0.2670150237
 C          3.5937484812       -2.5674530815       -0.6220078334
 C          4.6823475206       -2.3626191737       -1.6849255332
 C          5.6547908870       -1.2279458341       -1.3628303518
 H          6.3952990622       -1.1968120775       -2.1650733424
 H          5.1158575003       -0.2779993061       -1.3870833844
 C          6.3703990519       -1.3690389991       -0.0120808109
 H          6.3042510438       -2.4002769547        0.3366256843
 H          7.4294533744       -1.1422027295       -0.1519484506
 C          5.8546365711       -0.4302935732        1.0803845863
 H          6.5631190087       -0.4562163533        1.9125970321
 H          5.8332522544        0.5948674088        0.7018906904
 C          4.4695213383       -0.7646951345        1.6483691287
 H          4.4407823470       -1.8126966704        1.9531329484
 H          4.3159004741       -0.1445546223        2.5362728420
 H          5.2353668439       -3.2969112820       -1.7974638034
 H          4.1985517400       -2.1377481025       -2.6383414426
 H          4.0259653922       -3.0060832750        0.2751238109
 H          2.8370123684       -3.2461518988       -1.0190677651
 O          1.8975754858       -0.9790094370       -1.0956573409
 C          1.1951467149        0.2135680070       -0.9839491417
 O          0.2976591353        0.3484687491       -1.8371073405
 O          2.9324441983        1.5815407153        1.8838572898
 C          0.7665212719        2.3803830506        0.2378676358
 C         -0.6151202245        1.9797129790        0.6896559779
 C         -0.8312844822        1.6563025762        2.0266095508
 C         -2.0575791853        1.1784390736        2.4494729400
 C         -3.0861495579        0.9848593283        1.5432341272
 C         -2.8734649280        1.2917931031        0.2062107267
 C         -1.6559092175        1.8123527174       -0.2100724152
 H         -1.5081618408        2.0402902289       -1.2533237423
 N         -3.8889230435        1.0335382871       -0.7332537561
 S         -4.6147138340       -0.4726682733       -0.6383212859
 O         -4.9975184835       -0.8036898260       -1.9936215496
 O         -5.6976624300       -0.4176876576        0.3139765671
 C         -3.3657902387       -1.6042140697       -0.0426436945
 C         -2.1384067433       -1.6495034469       -0.6731576805
 C         -1.1767184496       -2.5282367687       -0.2009886839
 C         -1.4547500214       -3.3467445183        0.8822761052
 C         -2.6952014291       -3.2950546395        1.4992082621
 C         -3.6594562436       -2.4150214094        1.0356570649
 H         -4.6328194677       -2.3345018106        1.4919469274
 H         -2.9107761259       -3.9327720822        2.3413341933
 H         -0.6991982380       -4.0251824607        1.2463705840
 H         -0.2109572397       -2.5520635110       -0.6814301249
 H         -1.9186006276       -0.9997004480       -1.5056822963
 H         -3.6091231082        1.2303609902       -1.6837586113
 H         -4.0432127586        0.5930307755        1.8481009486
 H         -2.2122882508        0.9400882209        3.4905879787
 H         -0.0169649209        1.7698933965        2.7282795177
 H          1.2647527398        2.9018981743        1.0655480603
 C          0.7847537269        3.2734509335       -0.9842146549
 C          0.3323007233        4.6965518387       -0.8564518330
 C          1.7837673405        4.3870779846       -1.0629958222
 H          2.2287323719        4.6126020069       -2.0206827698
 H          2.4576560714        4.5147049410       -0.2285680575
 H         -0.2211082561        5.1385366125       -1.6709052106
 H          0.0189409158        5.0321177212        0.1205580386
 H          0.5589195408        2.7508680224       -1.9057434699
