  62
        -98.94665830
 C          1.1839806303        1.2716407803        0.0848291102
 C          1.5743084300        0.2794068201        1.0178375701
 C          2.4236003399       -0.7984756700        0.4982202000
 C          2.7177944399       -0.8251521299       -0.8144397000
 C          3.6392014598       -1.8142482399       -1.4667230901
 C          5.0827908499       -1.2913303802       -1.4839331699
 C          5.5713501099       -0.7838694904       -0.1270204898
 H          6.6115271800       -0.4748473206       -0.2508406697
 H          5.0026690601        0.1077504996        0.1467105202
 C          5.4756097997       -1.8130925506        1.0081626200
 H          6.4064858796       -1.7922982408        1.5788006301
 H          5.3747254395       -2.8161355805        0.5922471899
 C          4.3395407497       -1.5584370105        2.0009112800
 H          4.3876066898       -0.5250868805        2.3537279301
 H          4.4940750295       -2.2067338806        2.8675488599
 C          2.9226022796       -1.8242339202        1.4760084099
 H          2.8734588695       -2.8254474701        1.0443137098
 H          2.2386764096       -1.7835508502        2.3285268299
 H          5.7364689798       -2.0937059603       -1.8308507200
 H          5.1457847801       -0.4687436701       -2.2000160198
 H          3.5971237896       -2.7592047100       -0.9284465902
 H          3.3091287198       -1.9713319698       -2.4949844401
 O          2.2380274802        0.0847537303       -1.6972766399
 C          1.4631967803        1.1567170604       -1.2774799198
 O          1.0987329005        1.9085516106       -2.1997608297
 O          1.2343586000        0.3017715000        2.2320357901
 C          0.3669087304        2.4492487704        0.5935239403
 C         -1.0670922796        2.2418054907        0.1768782602
 C         -1.6709080394        2.9192484509       -0.8737798398
 C         -2.9739961994        2.6243158412       -1.2393431799
 C         -3.7008266396        1.6592904312       -0.5652901800
 C         -3.1034204298        0.9779399010        0.4874300299
 C         -1.7987013198        1.2698331207        0.8500820200
 H         -1.3280737999        0.7292542006        1.6615135200
 N         -3.8341968300       -0.0241208689        1.1693677698
 S         -4.1047838202       -1.4240873288        0.2925517696
 O         -4.8896714701       -1.0972711385       -0.8694101504
 O         -4.6893749804       -2.3640983888        1.2207782894
 C         -2.4837561203       -1.9837783790       -0.1995150204
 C         -1.8749012301       -1.3964049990       -1.2907476803
 C         -0.5996340202       -1.8058861792       -1.6446026103
 C          0.0405900896       -2.7882945094       -0.9053431404
 C         -0.5793256006       -3.3591787194        0.1951056195
 C         -1.8521251605       -2.9502029192        0.5571771595
 H         -2.3739480606       -3.3721833792        1.4012389894
 H         -0.0744367407       -4.1184676996        0.7703017695
 H          1.0286168396       -3.1095367295       -1.1929351004
 H         -0.1080084201       -1.3491238992       -2.4895695402
 H         -2.4023419800       -0.6402792088       -1.8498155502
 H         -3.4160455801       -0.2758701491        2.0550134898
 H         -4.7094627497        1.4073250815       -0.8495840401
 H         -3.4299205393        3.1545117814       -2.0618043998
 H         -1.1144811392        3.6638288409       -1.4184095397
 H          0.4087106204        2.3767058702        1.6892994503
 C          0.9463164907        3.7821809103        0.1733803705
 C          0.4985766709        5.0273460403        0.8770220306
 C          1.8820976808        4.4969461501        1.0997612306
 H          2.7162710409        5.0349461100        0.6749668007
 H          2.1030954907        4.0295203499        2.0483920706
 H          0.3811825211        5.9322126304        0.3007971707
 H         -0.2215034192        4.9174220204        1.6738615705
 H          1.1562903608        3.8456631404       -0.8868716395
