  62
        -98.94850201
 C          1.2308800010        1.5163133784        0.4983025158
 C          2.1724958654        1.2110208009       -0.5136055075
 C          3.2314743036        0.2644061379       -0.1369038088
 C          3.2507444690       -0.2466897975        1.1073216315
 C          4.2411201483       -1.2588543248        1.6042008777
 C          3.7209541842       -2.6896747063        1.4094253928
 C          3.1913589654       -2.9750202462        0.0035673879
 H          2.8991993901       -4.0276751247       -0.0226761091
 H          2.2770932628       -2.3980705496       -0.1602704114
 C          4.1937888872       -2.6949230448       -1.1249408539
 H          4.1540536840       -3.5229233762       -1.8359824696
 H          5.2062537831       -2.6631766558       -0.7198737492
 C          3.9236162513       -1.4152668437       -1.9188066198
 H          2.8756389793       -1.3952760763       -2.2304928848
 H          4.5353808898       -1.4423306151       -2.8247018873
 C          4.2357556260       -0.1006062782       -1.1927642364
 H          5.2436434603       -0.1397155032       -0.7747637762
 H          4.1989539878        0.7045563447       -1.9324550176
 H          2.9055712874       -2.8635318390        2.1157308896
 H          4.5294302205       -3.3852779513        1.6437331131
 H          4.4057206850       -1.0849990494        2.6691883936
 H          5.1829175887       -1.1284648612        1.0746755843
 O          2.3330737167        0.0749407907        2.0542776078
 C          1.2825238003        0.9295327342        1.7616313478
 O          0.4713345402        1.0882118655        2.6979892326
 O          2.1302731587        1.6987609056       -1.6734384115
 C          0.0567597340        2.4251283100        0.1874639753
 C         -0.7965989997        1.8188131688       -0.9022380123
 C         -1.4667177357        2.5714055169       -1.8589599077
 C         -2.2533580846        1.9474045039       -2.8122173872
 C         -2.4086911001        0.5726164720       -2.8224089150
 C         -1.7463122127       -0.1878459915       -1.8658669805
 C         -0.9496696899        0.4402897754       -0.9233891952
 H         -0.4183792202       -0.1642901447       -0.2053845841
 N         -1.8647943669       -1.5853983419       -1.8257728279
 S         -1.8758561300       -2.3623944006       -0.3441686955
 O         -0.5508554454       -2.3943666353        0.2214979438
 O         -2.4714031895       -3.6516171696       -0.6254695544
 C         -2.9893526448       -1.3946740474        0.6593593393
 C         -4.3307067718       -1.4407302579        0.3281954712
 C         -5.2284897957       -0.6645326325        1.0410598940
 C         -4.7716341741        0.1489616723        2.0674924310
 C         -3.4249840214        0.1794617900        2.3920742257
 C         -2.5214411321       -0.5988288816        1.6842346502
 H         -1.4691956700       -0.5829922972        1.9231708574
 H         -3.0583611536        0.8076633956        3.1884737518
 H         -5.4676151418        0.7600486669        2.6201704391
 H         -6.2774428880       -0.6922911105        0.7940138337
 H         -4.6470091595       -2.0946053458       -0.4682114512
 H         -2.5374347297       -1.9785686164       -2.4671035312
 H         -3.0242255618        0.0904561851       -3.5660528429
 H         -2.7600634732        2.5424558806       -3.5566114981
 H         -1.3659573733        3.6444277735       -1.8632532854
 H         -0.5512864609        2.4597623185        1.1045242963
 C          0.5319429240        3.8271786667       -0.1343052466
 C         -0.3022814538        5.0144154964        0.2399339578
 C          0.9596833930        4.7187356987        0.9914724962
 H          1.8145916203        5.3614442401        0.8446890575
 H          0.8799011292        4.3221037177        1.9935145981
 H         -0.3124693943        5.8664919376       -0.4229451920
 H         -1.2412470617        4.8301878950        0.7397951845
 H          1.1058331476        3.8698319899       -1.0525207471
