  62
        -98.94120463
 C         -2.1483660026       -0.7763119592       -0.3560452172
 C         -3.1359988886       -0.6474488044        0.6568284132
 C         -3.7207146351        0.6861034403        0.8392273555
 C         -3.2766520319        1.7041956919        0.0804615512
 C         -3.8068505196        3.1072216725        0.1276591546
 C         -4.9516316182        3.3041151240       -0.8760128439
 C         -6.0293166327        2.2224740137       -0.8022589857
 H         -6.8000557613        2.4813624067       -1.5313320111
 H         -5.5981599317        1.2686633534       -1.1146479298
 C         -6.6700389585        2.0583696052        0.5829992477
 H         -6.4742514513        2.9435420238        1.1891504730
 H         -7.7524844623        1.9816403788        0.4611874394
 C         -6.2190237785        0.8119621852        1.3469419586
 H         -6.3248706702       -0.0678271759        0.7073788059
 H         -6.8866285225        0.6772227028        2.2020470742
 C         -4.7843589387        0.8429060905        1.8893770626
 H         -4.6263539710        1.7591482135        2.4622014669
 H         -4.6650501349       -0.0088100361        2.5654116346
 H         -5.4016533607        4.2823705597       -0.6977053759
 H         -4.5315954355        3.3013620371       -1.8844406650
 H         -4.1518590456        3.3242318444        1.1368159699
 H         -2.9927048016        3.7898922635       -0.1219301388
 O         -2.3128463602        1.5526934692       -0.8603215852
 C         -1.7278695435        0.3197216551       -1.1094619600
 O         -0.8709559983        0.3583011166       -2.0162639890
 H          0.7564169372       -0.8797076367       -1.1697559418
 C          0.8740180249       -1.5150604851       -0.3043170024
 C         -0.2113915233       -2.2501041305        0.1511629041
 C         -0.0495959924       -3.0366649259        1.2855962896
 C          1.1675355839       -3.0843371910        1.9431659023
 C          2.2459239566       -2.3466994477        1.4879745881
 C          2.0896513153       -1.5496062527        0.3618324072
 N          3.1787918881       -0.7737512180       -0.1078186320
 S          3.6507589779        0.4802552046        0.9255383740
 O          4.0562243639       -0.0926933948        2.1836290132
 O          2.6183923000        1.4945763551        0.9922088956
 C          5.0758047975        1.1056434639        0.0583772083
 C          4.9467919084        2.2201586960       -0.7472432954
 C          6.0572237974        2.6800452350       -1.4379429010
 C          7.2693542472        2.0181163363       -1.3144422906
 C          7.3822014477        0.8986519566       -0.5032511884
 C          6.2763272779        0.4346697578        0.1907230973
 H          6.3178733824       -0.4252717160        0.8381299183
 H          8.3267931872        0.3877039134       -0.4094946547
 H          8.1315863241        2.3791243629       -1.8525539770
 H          5.9715805788        3.5507884273       -2.0680484860
 H          3.9863032219        2.7072949514       -0.8077454595
 H          2.9454870681       -0.3516693555       -0.9992965332
 H          3.1911645836       -2.3572845808        2.0046503956
 H          1.2773255180       -3.6999494005        2.8231919187
 H         -0.8931654552       -3.5968724632        1.6625542975
 C         -1.5481972059       -2.1609010321       -0.5461461446
 H         -2.2374957079       -2.8433076766       -0.0309489845
 C         -1.4490081977       -2.5853540736       -1.9978680536
 C         -1.3214251101       -4.0435253594       -2.3180323105
 C         -2.5948346592       -3.3166538016       -2.6275439113
 H         -2.8341568336       -3.1065339422       -3.6591581510
 H         -3.4593752927       -3.5165887354       -2.0113780074
 H         -0.6836660479       -4.3363298565       -3.1376574704
 H         -1.3221872855       -4.7373483532       -1.4910751152
 H         -0.9089287486       -1.8829257115       -2.6188196188
 O         -3.5153202711       -1.6125299416        1.3728448138
