  62
        -98.94451745
 C         -1.9459510955       -1.1006885831       -0.1753407607
 C         -2.4342886491        0.0406374248       -0.8556990382
 C         -3.8877608208        0.2420104378       -0.7925210536
 C         -4.6615169653       -0.6507813563       -0.1488765403
 C         -6.1591923584       -0.5918028972       -0.0164251155
 C         -6.6474111726        0.2929877514        1.1388957504
 C         -6.4921425434        1.7980831576        0.9168985032
 H         -6.9390311982        2.0712974156       -0.0394832319
 H         -7.0665934879        2.2979475860        1.6993633382
 C         -5.0425687784        2.3007051598        0.9719977164
 H         -4.4135265844        1.5488124318        1.4539364926
 H         -4.9921649917        3.2014979463        1.5877387449
 C         -4.4394638164        2.6490481006       -0.3889870159
 H         -3.4006076076        2.9533823402       -0.2362130643
 H         -4.9780578211        3.4942128266       -0.8234850004
 C         -4.4487814761        1.4929979347       -1.3977691494
 H         -5.4602943431        1.3208169277       -1.7650953828
 H         -3.8110390232        1.7688347123       -2.2412899838
 H         -7.7077699678        0.0771844247        1.2886842003
 H         -6.1174183188        0.0025027519        2.0489022056
 H         -6.5969601859       -0.2448477168       -0.9527044724
 H         -6.4956836202       -1.6143951093        0.1673534225
 O         -4.1541369706       -1.7544065890        0.4625079006
 C         -2.7893890499       -1.9925845268        0.4866631708
 O         -2.4561257239       -3.0149112197        1.1198009947
 O         -1.7011158802        0.8496091280       -1.4815086314
 C         -0.4548104985       -1.3873819978       -0.1515781153
 C          0.2829514269       -0.1948751621        0.4062748393
 C         -0.1299481050        0.3297497918        1.6293201741
 C          0.4914497893        1.4373726842        2.1702874239
 C          1.5498086003        2.0384857679        1.5107851442
 C          1.9770261605        1.5182970147        0.2959933614
 C          1.3491445325        0.4031179689       -0.2454892624
 H          1.6911082478        0.0358247298       -1.1978763776
 N          3.0386167359        2.1183480018       -0.3996964080
 S          4.2357818663        1.1822392907       -1.0934135574
 O          5.3220521472        2.1063372143       -1.3338452924
 O          3.7282562433        0.4831546969       -2.2454460594
 C          4.6907736160        0.0287970960        0.1880157420
 C          5.4881196783        0.4839534249        1.2203557513
 C          5.8001929592       -0.3792907809        2.2575516191
 C          5.3049725405       -1.6746930517        2.2492325472
 C          4.5075024751       -2.1163515108        1.2051041168
 C          4.1947758474       -1.2583049068        0.1623482737
 H          3.5819590521       -1.5665682064       -0.6683718808
 H          4.1254651950       -3.1248527940        1.1988417545
 H          5.5439973907       -2.3456838685        3.0591797037
 H          6.4248020563       -0.0409943291        3.0685113986
 H          5.8621767262        1.4942826080        1.1838613663
 H          3.4334616266        2.9267236300        0.0580867328
 H          2.0311304813        2.9106192605        1.9264551660
 H          0.1517496512        1.8375940871        3.1137050203
 H         -0.9589440430       -0.1391090610        2.1425893945
 H         -0.3192338358       -2.2316608644        0.5401670355
 C          0.0147739199       -1.8074344280       -1.5283360342
 C          1.1600886427       -2.7615983887       -1.6764948363
 C         -0.2358922885       -3.2127502542       -1.9828338160
 H         -0.5133332262       -3.3796555199       -3.0128243738
 H         -0.7233547593       -3.8786303116       -1.2853566985
 H          1.8483418907       -2.6176685689       -2.4966254966
 H          1.6158138235       -3.1352279668       -0.7717540528
 H         -0.0948018433       -1.0214472646       -2.2672377415
