  62
        -98.94455089
 C         -2.1343193843       -1.0219526925       -0.6104767073
 C         -1.5384591690        0.0730984570       -1.2817813944
 C         -2.1299609044        1.3939939187       -1.0146975150
 C         -3.1564933618        1.5014093310       -0.1542181145
 C         -3.8317688147        2.7862760224        0.2278832924
 C         -3.1925346196        3.4166783962        1.4720131487
 C         -1.6693935220        3.5305717138        1.4014637933
 H         -1.3401860577        4.0413398293        2.3097874654
 H         -1.2252424740        2.5321727465        1.4248882078
 C         -1.1420149878        4.2848113327        0.1729452386
 H         -1.9379635344        4.8890672067       -0.2652344785
 H         -0.3542838376        4.9681192463        0.4976122968
 C         -0.5320876888        3.3793141637       -0.8985519781
 H          0.1620065558        2.6848163134       -0.4185537478
 H          0.0442497933        4.0026534246       -1.5878923689
 C         -1.5337388196        2.5713364445       -1.7342821114
 H         -2.3192603887        3.2322795056       -2.1075143756
 H         -0.9960180791        2.1577492309       -2.5925304640
 H         -3.4484148739        2.8061466101        2.3412807050
 H         -3.6257494304        4.4090453910        1.6144321410
 H         -4.8802208534        2.5695179849        0.4415938925
 H         -3.7781585869        3.4792904739       -0.6097958918
 O         -3.6899732174        0.4324544210        0.4920173616
 C         -3.1844345727       -0.8401114096        0.2928888458
 O         -3.7596132557       -1.7271835151        0.9576431877
 O         -0.5696225011       -0.0233577584       -2.0786913564
 C         -1.6480429767       -2.4575063799       -0.7500330299
 C         -0.6028147350       -2.7392889356        0.2995261088
 C         -0.6843674880       -3.8537806260        1.1245682628
 C          0.2592584394       -4.0592961004        2.1163308663
 C          1.2783906981       -3.1469934016        2.3195080346
 C          1.3691090441       -2.0271690845        1.4977816446
 C          0.4490004472       -1.8514590070        0.4770491168
 H          0.5251989889       -0.9895150951       -0.1615317580
 N          2.3876151465       -1.0838212844        1.6829112605
 S          2.1569212856        0.5661678562        1.4484613556
 O          2.8639464487        1.1885693334        2.5506631321
 O          0.7600415985        0.8987301131        1.3234645925
 C          3.0657905058        0.8960500651       -0.0490338462
 C          2.4539964255        0.8606237565       -1.2853165377
 C          3.2204198420        1.1035396052       -2.4159940515
 C          4.5741381572        1.3728803775       -2.2969110304
 C          5.1746063678        1.4045501749       -1.0470283849
 C          4.4159694292        1.1637784893        0.0856814708
 H          4.8375068264        1.1927351749        1.0768926013
 H          6.2275959542        1.6160641056       -0.9528929029
 H          5.1623008410        1.5604874826       -3.1814613359
 H          2.7448755552        1.0765170392       -3.3833859817
 H          1.3992426147        0.6500123812       -1.3756413524
 H          2.9679006423       -1.2497478043        2.4918545382
 H          1.9964573855       -3.2931969977        3.1123855900
 H          0.1882734364       -4.9285278718        2.7527079059
 H         -1.5034312877       -4.5471483273        1.0007803757
 H         -2.5240891362       -3.0847517766       -0.5179090803
 C         -1.1972336627       -2.8125091510       -2.1596152039
 C          0.2332842791       -3.0322263394       -2.5391623663
 C         -0.7029348591       -4.1978678940       -2.4557917104
 H         -1.0218267424       -4.6763534347       -3.3693371479
 H         -0.5872424804       -4.8716077876       -1.6200543725
 H          0.5495395404       -2.6847250532       -3.5105417504
 H          0.9863669208       -2.9265142508       -1.7740686784
 H         -1.8278811283       -2.3500490250       -2.9117904004
