  62
        -98.94796886
 C         -1.2573448623        0.7720555852       -0.3963125064
 C         -2.0965921561        0.5880905949        0.7283373041
 C         -3.0538479126       -0.5210203974        0.6311991690
 C         -3.0407780612       -1.3259483874       -0.4466102088
 C         -3.9337558588       -2.5155587533       -0.6743659351
 C         -5.3088328844       -2.1632552406       -1.2585631682
 C         -6.2746203329       -1.4846230047       -0.2862609919
 H         -7.2600024531       -1.4931663173       -0.7563663318
 H         -6.3439735145       -2.0771687680        0.6264846057
 C         -5.9071966889       -0.0360225459        0.0643125939
 H         -5.1949813379        0.3466961670       -0.6701585551
 H         -6.7995705818        0.5907633291        0.0026832742
 C         -5.3200437784        0.1481441497        1.4637184916
 H         -5.0636327899        1.2027253067        1.5917897951
 H         -6.0711969891       -0.1096792156        2.2135070102
 C         -4.0573726229       -0.6811569752        1.7330696795
 H         -4.3163901090       -1.7318831715        1.8634536628
 H         -3.5962409407       -0.3178674572        2.6549326062
 H         -5.1629591432       -1.5251659280       -2.1331954568
 H         -5.7651410217       -3.0954396869       -1.5996097884
 H         -4.0617525873       -3.0609561771        0.2612950878
 H         -3.4118386626       -3.1633436668       -1.3824348511
 O         -2.1696806939       -1.1567405652       -1.4771058414
 C         -1.2653433709       -0.1075987954       -1.4782872219
 O         -0.5262459562       -0.0663475063       -2.4844229324
 O         -2.0511409793        1.3074141011        1.7602132776
 C         -0.2432412042        1.9002873437       -0.4116285234
 C          0.7853658769        1.6955107698        0.6752110960
 C          1.3158397166        2.7295497211        1.4362679948
 C          2.2835668691        2.4676709748        2.3910897189
 C          2.7634197610        1.1852477591        2.5876958826
 C          2.2430484386        0.1452519492        1.8260621535
 C          1.2568465252        0.4080621460        0.8899071396
 H          0.8393226161       -0.4127896505        0.3275189217
 N          2.7022102930       -1.1729441976        1.9737717727
 S          2.8507519183       -2.1342136425        0.6114447443
 O          1.5569763591       -2.5994461580        0.1774751471
 O          3.7882018071       -3.1646482587        1.0066107308
 C          3.6056890898       -1.0715241946       -0.6073018975
 C          4.9290699252       -0.7278317075       -0.4028027740
 C          5.5452350835        0.1398218441       -1.2883486598
 C          4.8284613597        0.6542261035       -2.3586031226
 C          3.5045634774        0.2951526662       -2.5536869388
 C          2.8820731624       -0.5763633707       -1.6724273898
 H          1.8503500877       -0.8621370584       -1.8094887592
 H          2.9390163496        0.6881308071       -3.3837926450
 H          5.3035865890        1.3356215414       -3.0465543020
 H          6.5771226471        0.4148451607       -1.1411862542
 H          5.4542845357       -1.1584698102        0.4342157230
 H          3.4863263120       -1.2841140682        2.5996714252
 H          3.5245832543        0.9864202459        3.3262033273
 H          2.6790745853        3.2777600066        2.9845365673
 H          0.9668746916        3.7381288612        1.2873382578
 H          0.2805420734        1.8217862621       -1.3766841848
 C         -0.9379401102        3.2443553013       -0.3426309343
 C         -0.3416076110        4.4391584014       -1.0223259931
 C         -1.5705300815        3.7928166067       -1.5853102040
 H         -2.5146962905        4.3092906386       -1.4991362329
 H         -1.4752212580        3.2078671917       -2.4890221559
 H         -0.4445295974        5.4050697138       -0.5512695843
 H          0.5887101027        4.3013242947       -1.5522026180
 H         -1.4632887216        3.3929378672        0.5934050440
