  62
        -98.94363530
 C         -2.6404861438        0.1390986377        0.1893683218
 C         -2.1553763801        0.9168064051       -0.8914494455
 C         -1.7402390720        2.2900813375       -0.5595096439
 C         -1.8100981027        2.7196891955        0.7120853587
 C         -1.3821894511        4.0769595672        1.1898433254
 C          0.0832992864        4.0817863567        1.6437001498
 C          1.0517713147        3.4616725078        0.6355567181
 H          2.0592494722        3.5786678077        1.0425564871
 H          0.8651105454        2.3869777005        0.5657673736
 C          0.9953119283        4.0806763554       -0.7677125455
 H          0.5234732913        5.0636685275       -0.7212510923
 H          2.0172767662        4.2252678449       -1.1247757087
 C          0.2805338659        3.2218470510       -1.8130215155
 H          0.6781291495        2.2036528969       -1.7842010738
 H          0.5062252484        3.6322308941       -2.8016537942
 C         -1.2469627411        3.1512390248       -1.6880898480
 H         -1.6576773625        4.1607367791       -1.6086448610
 H         -1.6322729226        2.6930679028       -2.6039232417
 H          0.3764968126        5.1146632708        1.8432017841
 H          0.1590236034        3.5178397453        2.5762577082
 H         -1.5267201052        4.7981921648        0.3875475241
 H         -2.0145792688        4.3550510491        2.0351006968
 O         -2.2673631616        1.9425556147        1.7273191844
 C         -2.6707422504        0.6409985880        1.4933418045
 O         -3.0553868075        0.0355218394        2.5160521508
 H         -0.4969336917       -1.0033421220       -0.7714992211
 C         -0.6330336076       -1.8983197164       -0.1842186843
 C         -1.8865720332       -2.2290646024        0.3053951583
 C         -2.0264328841       -3.4031751207        1.0369619121
 C         -0.9322605826       -4.2118749307        1.2861564945
 C          0.3267081174       -3.8493160684        0.8418256780
 C          0.4750253427       -2.6802598681        0.1051078526
 N          1.7338866420       -2.2564037944       -0.3522673869
 S          2.0275716128       -0.5888447452       -0.2847570379
 O          1.4143860455       -0.0301045091        0.8984123224
 O          1.6603717881       -0.0041881592       -1.5485559299
 C          3.8041601677       -0.5754470462       -0.1269862793
 C          4.3738221790       -0.4080869313        1.1206449221
 C          5.7550834006       -0.4341593609        1.2358325326
 C          6.5381088494       -0.6301477325        0.1082154844
 C          5.9517025942       -0.7954526765       -1.1380104452
 C          4.5716215678       -0.7684619446       -1.2604343865
 H          4.0703590735       -0.8814970511       -2.2075955051
 H          6.5636356638       -0.9441684928       -2.0129353651
 H          7.6124045456       -0.6510757874        0.2008813502
 H          6.2132622923       -0.3018227690        2.2026749966
 H          3.7236367768       -0.2515890348        1.9666217848
 H          2.4966705891       -2.7872162414        0.0464230978
 H          1.1874547543       -4.4610666573        1.0656322206
 H         -1.0552050730       -5.1204172997        1.8557888909
 H         -2.9965725967       -3.6688440489        1.4293399785
 C         -3.0674218133       -1.3150736492        0.0666356068
 H         -3.7847835819       -1.4882159177        0.8822259907
 C         -3.7439535877       -1.6641501946       -1.2443395887
 C         -4.7321074701       -2.7895094765       -1.2850720447
 C         -5.2025527080       -1.3732380667       -1.4216005099
 H         -5.5420253299       -1.0263781453       -2.3856717957
 H         -5.7258355378       -0.9269547773       -0.5882380347
 H         -4.7496319155       -3.4237527048       -2.1578238770
 H         -4.9484509420       -3.3046430624       -0.3617000562
 H         -3.1024519717       -1.5242932129       -2.1043869400
 O         -2.0728047563        0.5156421222       -2.0831681842
