  62
        -98.93644840
 C          2.2355238903        1.3964912731        0.3492552096
 C          2.3055334320        0.4896852920       -0.7331523690
 C          3.0669989405       -0.7544250723       -0.5038407997
 C          3.6412739556       -0.9591537497        0.6949585035
 C          4.4539405106       -2.1385226600        1.1670572942
 C          5.4963784127       -2.6965910403        0.1861294957
 C          5.1222536196       -4.0654610228       -0.3848507667
 H          6.0359750740       -4.5750980348       -0.6983178114
 H          4.6724656881       -4.6627418034        0.4110521443
 C          4.1776195509       -4.0325566556       -1.5850955623
 H          3.8792518884       -5.0613560820       -1.7997517051
 H          4.7163865187       -3.6609812924       -2.4593467232
 C          2.9161093092       -3.1858695007       -1.4028290615
 H          2.4998587675       -3.3239674422       -0.4050314571
 H          2.1638538315       -3.5471223822       -2.1076417800
 C          3.1330376013       -1.6905429551       -1.6791817665
 H          4.0839173461       -1.5410032136       -2.1989301342
 H          2.3557697872       -1.3292044987       -2.3599768813
 H          6.4374206803       -2.8042541356        0.7277832799
 H          5.6665534925       -1.9835463628       -0.6188015131
 H          3.7655458036       -2.9324173769        1.4687075697
 H          4.9486015491       -1.7941201085        2.0782659071
 O          3.5229465436       -0.0655370000        1.7202491009
 C          2.8130594316        1.1130849502        1.5845006497
 O          2.7657857569        1.8100545324        2.6195767762
 O          1.7581797950        0.7032943365       -1.8460923420
 C          1.4492658816        2.6891437563        0.2110128190
 C          0.0049166456        2.3533526208       -0.0727510200
 C         -0.7145971644        2.8620210617       -1.1447988315
 C         -2.0245094246        2.4668690042       -1.3585503231
 C         -2.6444253718        1.5677707749       -0.5105502741
 C         -1.9366015901        1.0619561688        0.5722728013
 C         -0.6279604868        1.4611321630        0.7850515807
 H         -0.0740264414        1.0592847108        1.6261775169
 N         -2.5630978201        0.1438094405        1.4443106402
 S         -2.9686244664       -1.3421144312        0.7595418125
 O         -3.0412435964       -2.2651190442        1.8722640992
 O         -2.0637683387       -1.6967844673       -0.3102080900
 C         -4.6061469472       -1.0730425471        0.1164274994
 C         -4.8364488505       -1.1745151490       -1.2414341287
 C         -6.1188756608       -0.9558709510       -1.7206217659
 C         -7.1413098852       -0.6417671365       -0.8382155826
 C         -6.8934345103       -0.5466213237        0.5233153592
 C         -5.6141958850       -0.7649141582        1.0091651695
 H         -5.3778226358       -0.7069393915        2.0584865831
 H         -7.6913562291       -0.3029498154        1.2060584899
 H         -8.1375878546       -0.4705859379       -1.2141825911
 H         -6.3133197687       -1.0299634323       -2.7785094651
 H         -4.0078337252       -1.4151272938       -1.8882884042
 H         -2.0255094009       -0.0218587503        2.2844189545
 H         -3.6624324979        1.2555032875       -0.6771296729
 H         -2.5693059921        2.8635056030       -2.2015381893
 H         -0.2458554325        3.5563979065       -1.8222154278
 H          1.4985549279        3.1797451224        1.1941414126
 C          2.0845448500        3.5957770915       -0.8208361693
 C          1.8937793672        5.0794420645       -0.7345917811
 C          3.2247486502        4.4745589580       -0.4060822415
 H          4.0428448664        4.6168773423       -1.0959935903
 H          3.5302254113        4.4349429387        0.6296450549
 H          1.8009127597        5.6417017492       -1.6512683012
 H          1.2959853424        5.4595921162        0.0798288342
 H          2.1368620282        3.1387761416       -1.8019116191
