  62
        -98.93968556
 C         -1.0289875070       -1.3772269392        0.4614990486
 C         -1.9750202468       -1.1151597952       -0.5546836753
 C         -3.0650620707       -0.1793599248       -0.2159018811
 C         -3.0967038399        0.3741847742        1.0095476540
 C         -4.0801524366        1.3669610995        1.5770474228
 C         -5.5665898054        1.1335344778        1.2676057001
 C         -6.1515843077        2.1502038561        0.2855851120
 H         -7.2306660026        2.2086349673        0.4445177198
 H         -5.7344908884        3.1331516601        0.5148212985
 C         -5.9188686232        1.8364534600       -1.1912165798
 H         -6.5397981549        0.9866002584       -1.4826898782
 H         -6.2562086053        2.6997151958       -1.7696526586
 C         -4.4699684698        1.5270813116       -1.5731651305
 H         -3.7844315631        2.2007181559       -1.0585969496
 H         -4.3572488985        1.7185786372       -2.6425957884
 C         -4.0641796314        0.0683959439       -1.3127112218
 H         -4.9543855802       -0.5393307529       -1.1271493753
 H         -3.5948333321       -0.3473422426       -2.2099084637
 H         -5.7137631592        0.1200873706        0.8982124503
 H         -6.1168826602        1.2191289203        2.2060352144
 H         -3.9177164487        1.3385844644        2.6572355579
 H         -3.7821512178        2.3661430275        1.2473405292
 O         -2.1470867872        0.1085473057        1.9522431060
 C         -1.0869105102       -0.7409248630        1.6993762280
 O         -0.2746784798       -0.8491197290        2.6417180393
 H          0.6825516732        0.2852359407       -0.2217820758
 C          1.2054955365       -0.3368131895       -0.9312625717
 C          1.0214540575       -1.7118453256       -0.9014954983
 C          1.6807726369       -2.4871961477       -1.8473433617
 C          2.4897463966       -1.8894884603       -2.7986553822
 C          2.6784161318       -0.5191786883       -2.8162239913
 C          2.0260854257        0.2642864462       -1.8711282866
 N          2.1813046931        1.6583685267       -1.8435624424
 S          2.1930310913        2.4595626853       -0.3759984788
 O          0.8598954363        2.5442030561        0.1672818995
 O          2.8318658050        3.7248614049       -0.6715339824
 C          3.2598299695        1.4809528702        0.6667498469
 C          2.7499344757        0.7198175444        1.6979384405
 C          3.6185528635       -0.0637431544        2.4427190919
 C          4.9723274371       -0.0728601947        2.1479734425
 C          5.4712058385        0.7050864396        1.1135743158
 C          4.6086705733        1.4864701265        0.3637947984
 H          4.9582403967        2.1140323580       -0.4398353773
 H          6.5256057872        0.7016017358        0.8893043850
 H          5.6409865387       -0.6870631758        2.7301658610
 H          3.2189433988       -0.6644395122        3.2444337697
 H          1.6926688298        0.7344575083        1.9137089497
 H          2.8703891705        2.0269478528       -2.4821112954
 H          3.3129295720       -0.0574436832       -3.5568073770
 H          2.9883343513       -2.5019436682       -3.5343298548
 H          1.5550646087       -3.5574782052       -1.8444417631
 C          0.1504522140       -2.2911731971        0.1887962616
 H          0.7448792361       -2.2994346176        1.1154232968
 C         -0.3181056619       -3.7021975680       -0.1013013230
 C          0.5215492557       -4.8765178812        0.3005728503
 C         -0.7429279088       -4.5704984039        1.0436412755
 H         -1.5942981844       -5.2207364859        0.9099425410
 H         -0.6665482436       -4.1517597895        2.0369189533
 H          1.4590128507       -4.6761142221        0.7969054323
 H          0.5369615658       -5.7431813131       -0.3430208970
 H         -0.8906673003       -3.7684219303       -1.0188973527
 O         -1.9139085469       -1.6313979730       -1.7019484653
