  62
        -98.94104589
 C          2.4670419519        1.3632108544       -0.0645350472
 C          3.3170810247        0.8138097606        0.9313698454
 C          4.2732120211       -0.2089365773        0.4901258837
 C          4.2966609695       -0.5669230974       -0.8061964563
 C          5.1896068366       -1.6219333565       -1.3908159763
 C          4.5147076145       -3.0004067675       -1.3699652336
 C          3.9090439786       -3.3720772668       -0.0163171365
 H          3.0754852072       -2.6990008770        0.1998799137
 H          3.4898671281       -4.3762100161       -0.1123960659
 C          4.9022068348       -3.3417176380        1.1539542163
 H          5.9238761882       -3.3703543098        0.7734468817
 H          4.7558924726       -4.2386765653        1.7593307873
 C          4.7428639148       -2.1419139552        2.0896395983
 H          3.6973876137       -2.0535892980        2.3965239986
 H          5.3331252148       -2.3325100151        2.9898502179
 C          5.1958870385       -0.7901368118        1.5240271332
 H          5.2093867619       -0.0724658152        2.3494695670
 H          6.2097222884       -0.8786388709        1.1281760289
 H          5.2535319799       -3.7506077126       -1.6577308606
 H          3.7154376647       -3.0074679640       -2.1149328009
 H          5.4099930551       -1.3512257434       -2.4248324164
 H          6.1200974103       -1.6535212506       -0.8271943970
 O          3.4673854441       -0.0260794880       -1.7323051347
 C          2.5291832131        0.9425968159       -1.3933614294
 O          1.8418153094        1.3227989278       -2.3603152612
 H         -0.0729073913        0.9730702852       -1.2364352762
 C         -0.5413837154        1.1507018840       -0.2793035573
 C          0.1344937788        1.8945030669        0.6785923825
 C         -0.4773047052        2.1056275682        1.9086489688
 C         -1.7367865586        1.5922515908        2.1657397301
 C         -2.4132542763        0.8653719570        1.2025141844
 C         -1.8063734519        0.6393173181       -0.0262056715
 N         -2.4875548282       -0.0829608629       -1.0208836104
 S         -3.2016245235       -1.5420523693       -0.6004995320
 O         -2.5098517519       -2.1733883059        0.5001452622
 O         -3.2775198006       -2.2983128779       -1.8312587289
 C         -4.8471966229       -1.0745810073       -0.1051695318
 C         -5.5973296173       -0.3139807409       -0.9807714739
 C         -6.8821807271        0.0544476921       -0.6154767403
 C         -7.3935759338       -0.3438886967        0.6108206620
 C         -6.6294255199       -1.1107951655        1.4768701714
 C         -5.3427099619       -1.4819065259        1.1179428430
 H         -4.7096372179       -2.0718750712        1.7615768437
 H         -7.0288045648       -1.4200287246        2.4294096524
 H         -8.3937259707       -0.0550546089        0.8929345087
 H         -7.4792507516        0.6505987585       -1.2866294513
 H         -5.1634715383       -0.0268531137       -1.9240868141
 H         -1.9642674028       -0.1709393453       -1.8804401663
 H         -3.3948644084        0.4648726055        1.3960410319
 H         -2.1990662510        1.7623880420        3.1260021802
 H          0.0478636970        2.6635982180        2.6699996981
 C          1.5059244649        2.4490297567        0.3898031402
 H          1.9254093055        2.7986327534        1.3464587844
 C          1.4788689820        3.6458192419       -0.5530436069
 C          0.2975740763        4.0293500595       -1.3880559040
 C          0.6699904248        4.8586288398       -0.1982590864
 H          1.1017424919        5.8349361816       -0.3574037467
 H          0.0354277607        4.7901760485        0.6725288381
 H         -0.5926181821        3.4237119483       -1.3283686470
 H          0.4925652702        4.4161209062       -2.3767652081
 H          2.4531141687        3.8253558438       -0.9973740431
 O          3.2849186500        1.1772793772        2.1375509822
