  62
        -98.93896776
 C          2.1686723322        1.0347932655        0.4637504490
 C          2.3167241125        0.2510190126       -0.7041229909
 C          3.0988454609       -0.9913854429       -0.5615825049
 C          3.5741877919       -1.3315099764        0.6488276416
 C          4.4288881349       -2.5182438769        0.9987576951
 C          5.9208867051       -2.1465318698        0.9526806112
 C          6.5785267266       -2.2900545943       -0.4191935515
 H          7.5861856190       -1.8756239034       -0.3410032959
 H          6.6779694338       -3.3505828477       -0.6596305431
 C          5.8486906364       -1.5941389969       -1.5710063034
 H          5.5130850299       -0.6060865172       -1.2510386429
 H          6.5658582855       -1.4458333487       -2.3805055837
 C          4.6568016586       -2.4016528374       -2.1066657266
 H          4.7035685099       -3.4147095019       -1.7074366268
 H          4.7397878842       -2.4930410772       -3.1915898414
 C          3.2741165629       -1.7974098215       -1.8195911280
 H          3.0010241429       -1.1107458306       -2.6272385060
 H          2.5237677119       -2.5958308520       -1.8275167838
 H          6.0196527365       -1.1159438975        1.3030276800
 H          6.4617234852       -2.7836830837        1.6552757413
 H          4.1705661298       -2.7962866016        2.0228588193
 H          4.2106132752       -3.3565514717        0.3437832528
 O          3.3644352144       -0.5705632109        1.7593052132
 C          2.6641509104        0.6200516475        1.6986743640
 O          2.5419816768        1.2037518992        2.7957658217
 H         -0.2201497073        0.6125944598        1.5996336167
 C         -0.7268575920        1.0972454130        0.7728696568
 C         -0.0397701797        2.0493829822        0.0288326976
 C         -0.6975855044        2.6642223579       -1.0271178387
 C         -2.0025139042        2.3175284879       -1.3346138193
 C         -2.6795489649        1.3652876941       -0.5955885629
 C         -2.0328911414        0.7496452566        0.4686656767
 N         -2.7181557351       -0.2112103627        1.2375341125
 S         -3.3766688090       -1.5234631337        0.4174208862
 O         -3.4590117528       -2.5808134346        1.4023263448
 O         -2.6371144451       -1.8240840074       -0.7869796567
 C         -5.0231564992       -0.9815839109        0.0107399117
 C         -5.8479624427       -0.5778638856        1.0425515216
 C         -7.1340703045       -0.1567539584        0.7447203486
 C         -7.5717943227       -0.1492423999       -0.5714839006
 C         -6.7325354603       -0.5610130592       -1.5954158236
 C         -5.4441142808       -0.9823386061       -1.3045771467
 H         -4.7533913457       -1.3049062625       -2.0673780073
 H         -7.0744330134       -0.5547516131       -2.6179056032
 H         -8.5731703231        0.1793260338       -0.8007037098
 H         -7.7894719253        0.1643107175        1.5381919191
 H         -5.4692373335       -0.6026630211        2.0506778771
 H         -2.1863069994       -0.5362704890        2.0327307659
 H         -3.6939199862        1.0912001292       -0.8352850387
 H         -2.4992736431        2.7967341418       -2.1643285416
 H         -0.1855075310        3.4047849860       -1.6186675152
 C          1.3910011158        2.3390699313        0.4147479188
 H          1.3914329605        2.7290407590        1.4431388045
 C          2.0807782937        3.3396059769       -0.4873382429
 C          1.8861582387        4.8084025923       -0.2646484620
 C          3.1979394564        4.1668022916        0.0713278818
 H          4.0512171429        4.3725218644       -0.5573636767
 H          3.4485047878        4.0242646321        1.1127877416
 H          1.8411857051        5.4591937108       -1.1246110686
 H          1.2465562014        5.1091954101        0.5511822644
 H          2.1844560001        2.9823676726       -1.5050518318
 O          1.8301990669        0.5730541365       -1.8193162860
