  62
        -98.94103260
 C         -2.5715032044       -0.1980382964        0.4947587033
 C         -2.2096084193        0.3397460830       -0.7654571445
 C         -2.0198924162        1.7976023770       -0.8113576472
 C         -2.2010199369        2.5266073712        0.3032196975
 C         -2.0556872576        4.0182044797        0.3919081791
 C         -0.6436964961        4.4347039919        0.8223497405
 C          0.4764593057        3.7671805051        0.0241844414
 H          0.5090763982        2.7010736768        0.2608027814
 H          1.4192538021        4.1956646762        0.3731747214
 C          0.3718452199        3.9391930144       -1.4974020919
 H          1.3647967335        4.1728103278       -1.8870211944
 H         -0.2777146038        4.7832199212       -1.7344908332
 C         -0.1158088358        2.6919250974       -2.2382028801
 H          0.4306513554        1.8193127375       -1.8701483456
 H          0.1176504689        2.8104303167       -3.2998956984
 C         -1.6176943534        2.3970194419       -2.1287378539
 H         -1.8691844034        1.6491692502       -2.8865389878
 H         -2.1907755936        3.3036887239       -2.3359102054
 H         -0.5113932858        4.1757688807        1.8757212173
 H         -0.5642342780        5.5197818821        0.7263972841
 H         -2.2937115703        4.4541761494       -0.5766463871
 H         -2.7713566283        4.3850967810        1.1304767001
 O         -2.5326648504        1.9746820656        1.5002078854
 C         -2.6817579505        0.6039398073        1.6314850251
 O         -2.9202764397        0.2259214409        2.7983550086
 H         -0.1700021959       -1.0972309332        0.8981063945
 C         -0.3115344885       -1.9511409384        0.2498564399
 C         -1.5990544889       -2.4250550015        0.0240500812
 C         -1.7609717074       -3.5375765764       -0.7891127889
 C         -0.6584180613       -4.1447153621       -1.3680321145
 C          0.6147321809       -3.6460875250       -1.1722388018
 C          0.7855869843       -2.5218002433       -0.3685789446
 N          2.0584294531       -1.9445411725       -0.2218293886
 S          2.3133302959       -0.5757974199        0.7073199919
 O          2.1726665820       -0.8737862974        2.1189721231
 O          1.5040270170        0.4974960926        0.1922564549
 C          4.0283641578       -0.2773335192        0.3253979421
 C          5.0105441948       -0.7609793342        1.1685993567
 C          6.3405287484       -0.5468454575        0.8419635167
 C          6.6640825011        0.1417129901       -0.3174204193
 C          5.6672945409        0.6235588786       -1.1529944784
 C          4.3359430355        0.4130263101       -0.8314107772
 H          3.5266664914        0.7750772675       -1.4443805267
 H          5.9216539967        1.1617271523       -2.0518215034
 H          7.6995181896        0.3072031250       -0.5697887411
 H          7.1173547947       -0.9166378212        1.4916015239
 H          4.7113282606       -1.2803941915        2.0648084543
 H          2.8256937218       -2.5990234150       -0.2028758530
 H          1.4687741961       -4.1059168700       -1.6442743679
 H         -0.7974226547       -5.0126925436       -1.9947556553
 H         -2.7482060013       -3.9216314044       -0.9865723988
 C         -2.7332508569       -1.6948401833        0.7032515632
 H         -2.6161275829       -1.8411933554        1.7913145133
 C         -4.1086038908       -2.2352733899        0.3379771971
 C         -5.3042418399       -1.3338606767        0.2683704709
 C         -4.7502107743       -1.9411421061       -0.9834908655
 H         -5.3165198293       -2.7251803533       -1.4645492884
 H         -4.2057682121       -1.3084861944       -1.6661268693
 H         -5.1468712282       -0.2786730759        0.4406355865
 H         -6.2442520224       -1.7027316523        0.6509155193
 H         -4.2819058293       -3.2218883092        0.7567421598
 O         -2.0652137424       -0.3490022552       -1.8085285999
