  62
        -98.93409887
 C         -2.6154827491       -0.0048324159        0.1633225266
 C         -2.3804605083        1.0813557551        1.0424413720
 C         -1.8814359434        2.3222025795        0.4370771443
 C         -1.6949494018        2.3728224639       -0.8936881101
 C         -1.0861594182        3.5193778747       -1.6493063076
 C          0.4506588908        3.4542476470       -1.5299150575
 C          1.0755723429        4.6053373709       -0.7393232379
 H          2.1074142602        4.3227879197       -0.5199810594
 H          1.1014545446        5.4966567683       -1.3705303251
 C          0.3757490379        4.9838770630        0.5695876494
 H          1.0702093988        5.6125046018        1.1311425648
 H         -0.4978904920        5.6007590663        0.3530068077
 C         -0.0594481089        3.8138938554        1.4620350434
 H          0.5313673675        2.9212935674        1.2453282169
 H          0.1408605744        4.0812260219        2.5020175755
 C         -1.5564880147        3.4606873935        1.3621807376
 H         -2.1291862344        4.3478133917        1.0783083545
 H         -1.9096560213        3.1384001920        2.3461396891
 H          0.7198465364        2.5011731489       -1.0674365939
 H          0.8909008233        3.4503721271       -2.5285770915
 H         -1.3887621860        3.4190008640       -2.6920432417
 H         -1.4646244416        4.4628758766       -1.2626555541
 O         -1.9681343533        1.3257906766       -1.7118026902
 C         -2.3590452649        0.0945714251       -1.2053928500
 O         -2.4512265343       -0.7951768128       -2.0717832156
 O         -2.5597002993        1.0056180535        2.2902740723
 C         -2.9214478396       -1.3568651510        0.7867058878
 C         -1.8684806463       -2.3365144699        0.3264772402
 C         -2.1290231097       -3.6094707701       -0.1582100294
 C         -1.0858254433       -4.4216146789       -0.5743971469
 C          0.2228101776       -3.9797088658       -0.5392036279
 C          0.4927525890       -2.6986784028       -0.0638806896
 C         -0.5461265750       -1.9117932860        0.3957064476
 H         -0.3273577648       -0.9300405951        0.7910991477
 N          1.7997516413       -2.1841266776       -0.0927031431
 S          2.1740260912       -0.6791913431        0.5461356490
 O          2.0017799356       -0.6707845961        1.9841501336
 O          1.4689405184        0.3389063528       -0.1911214585
 C          3.9104246496       -0.6171549800        0.1494118065
 C          4.8425250078       -0.9696834725        1.1068545887
 C          6.1879054560       -0.9471364460        0.7737944130
 C          6.5761037234       -0.5761095334       -0.5047073886
 C          5.6292629970       -0.2220658031       -1.4545949858
 C          4.2827899931       -0.2423144833       -1.1275310941
 H          3.5109105794        0.0315498950       -1.8283345633
 H          5.9341915894        0.0693537314       -2.4467212252
 H          7.6233371760       -0.5593178349       -0.7620172149
 H          6.9262711199       -1.2178467428        1.5111767000
 H          4.4938445093       -1.2412275496        2.0902466762
 H          2.5284079931       -2.8694711760        0.0403921518
 H          1.0280933540       -4.6067951426       -0.8885222500
 H         -1.3000051740       -5.4118799146       -0.9471260800
 H         -3.1453212303       -3.9610320393       -0.2284723838
 H         -2.7675084716       -1.1900406831        1.8675679278
 C         -4.3486075185       -1.8563904856        0.6323104308
 C         -5.4693420386       -0.9114100798        0.3197819434
 C         -5.0442895228       -1.9300280461       -0.6926467230
 H         -5.6996195941       -2.7688177252       -0.8774556429
 H         -4.4971185682       -1.5970245145       -1.5596314214
 H         -6.4124017603       -1.0462439280        0.8281523240
 H         -5.2118067968        0.1225904985        0.1395191122
 H         -4.5771762121       -2.6460887167        1.3419864092
