  62
        -98.94519344
 C         -1.4937874965       -0.6699192592       -0.5302163287
 C         -2.6803356470       -1.0923537985        0.1251517969
 C         -3.5407708017       -0.0380756365        0.6742028213
 C         -3.1556682570        1.2456280254        0.5587951697
 C         -3.9510991044        2.4267259957        1.0332410691
 C         -4.8784541051        2.9543501165       -0.0705973753
 C         -5.7122348504        1.8671174335       -0.7486639780
 H         -6.3487715086        2.3590119427       -1.4872861365
 H         -5.0451218335        1.1958815500       -1.2941621769
 C         -6.5836332536        1.0444844667        0.2106130325
 H         -6.6975088083        1.5761111553        1.1560221033
 H         -7.5797564494        0.9389551396       -0.2242153686
 C         -6.0651332066       -0.3685843563        0.4839341385
 H         -5.8601091545       -0.8732116563       -0.4634724615
 H         -6.8562230138       -0.9291941646        0.9889954025
 C         -4.8093935750       -0.4613353852        1.3601069384
 H         -4.9582433135        0.1096895797        2.2791097934
 H         -4.6675313005       -1.5123614150        1.6285216454
 H         -5.5401933160        3.7052092286        0.3650537960
 H         -4.2659462289        3.4418587218       -0.8325336461
 H         -4.5344078459        2.1369067555        1.9053365002
 H         -3.2539744607        3.2158078679        1.3211039947
 O         -2.0067072449        1.6150682380       -0.0568006041
 C         -1.1463020315        0.6785533942       -0.6153586015
 O         -0.1484313902        1.1912159160       -1.1565707884
 H          1.4723056061       -0.3122948236       -0.1151275477
 C          1.4178276029       -1.2850250309        0.3438102134
 C          0.4123899912       -2.1658388882       -0.0332522815
 C          0.3355522146       -3.4058055807        0.5897017389
 C          1.2398503240       -3.7524546100        1.5774965511
 C          2.2279692913       -2.8669347641        1.9641309643
 C          2.3146572581       -1.6219391087        1.3471027477
 N          3.3245671429       -0.7282740243        1.7185562399
 S          3.1774446452        0.9352949744        1.6019034971
 O          4.1168447726        1.4304721691        2.5890077527
 O          1.8101846906        1.3695692813        1.7584949293
 C          3.8296473368        1.2920899250       -0.0155312964
 C          5.1821943449        1.0739584558       -0.2010971733
 C          5.7401467486        1.3249597903       -1.4429052901
 C          4.9392709327        1.7889564395       -2.4762999715
 C          3.5860802404        2.0057880817       -2.2723882818
 C          3.0197376828        1.7577502640       -1.0300561130
 H          1.9654090630        1.9060617279       -0.8527040576
 H          2.9580154474        2.3644682021       -3.0724696670
 H          5.3711410652        1.9836466976       -3.4454501988
 H          6.7932223232        1.1584448561       -1.6028468482
 H          5.7685946752        0.7246083893        0.6323189141
 H          3.8718654204       -1.0068340326        2.5189589169
 H          2.9272975985       -3.1299046537        2.7432361702
 H          1.1685877994       -4.7166107638        2.0577994285
 H         -0.4543673406       -4.0876060476        0.3110591463
 C         -0.6039036777       -1.7737076156       -1.0805323943
 H         -1.2729758763       -2.6331395037       -1.2266931437
 C          0.0568569449       -1.4536066707       -2.4049006532
 C          0.5264917790       -2.5848883554       -3.2681748378
 C         -0.6635731499       -1.7720185261       -3.6792565805
 H         -0.5646018670       -1.0894291042       -4.5096878459
 H         -1.6418362895       -2.2240667715       -3.6015987201
 H          0.3542902697       -3.5896987351       -2.9131013704
 H          1.4470801860       -2.4634456851       -3.8175830999
 H          0.6546504942       -0.5526290675       -2.3875805365
 O         -3.0086583291       -2.3045143488        0.2371029675
