  62
        -98.94421635
 C          1.4282288119        1.5448994121       -0.9460914490
 C          2.6436947274        1.2892010205       -0.2598859597
 C          3.3144430621        0.0231622389       -0.5652188652
 C          2.7797361592       -0.8079160271       -1.4773447998
 C          3.3224467684       -2.1514051095       -1.8803872707
 C          2.8875286872       -3.2823243110       -0.9378499846
 C          3.5945460850       -3.3009670489        0.4180788669
 H          3.3805361823       -4.2685626508        0.8767139688
 H          4.6736031247       -3.2404917055        0.2687425856
 C          3.1397620498       -2.1932794522        1.3791265682
 H          2.9730214429       -2.6209189888        2.3712823868
 H          2.1775838287       -1.7954759223        1.0452737537
 C          4.1359171003       -1.0445764162        1.5452522774
 H          3.6867245974       -0.2984538485        2.2062257457
 H          5.0450155894       -1.4168591888        2.0240121082
 C          4.5256229824       -0.3434372563        0.2375006158
 H          5.0509726028        0.5813944927        0.4892906321
 H          5.1920999260       -0.9781456584       -0.3461960538
 H          1.8086657574       -3.2072335200       -0.7768790988
 H          3.0878743372       -4.2296395045       -1.4444576171
 H          4.4109406586       -2.1134029579       -1.9330910038
 H          2.9306919463       -2.3620483398       -2.8778688277
 O          1.6517347329       -0.5012273581       -2.1628016595
 C          0.9116383573        0.6407025489       -1.8733416129
 O         -0.1454727361        0.7176381437       -2.5275197453
 O          3.1402932499        2.0894251878        0.5789853606
 C          0.6605379049        2.7768756996       -0.4937571271
 C         -0.0473507422        2.4273728726        0.7931275940
 C          0.0421658587        3.2294799750        1.9227547750
 C         -0.5412875115        2.8259861331        3.1120036403
 C         -1.1960874011        1.6115237034        3.2013724704
 C         -1.2976514159        0.8034519487        2.0717919901
 C         -0.7547214278        1.2356433844        0.8732270486
 H         -0.8307223256        0.6093586109        0.0008881629
 N         -1.9497224133       -0.4316541444        2.1339865556
 S         -1.6598536751       -1.7094998116        1.0887863515
 O         -1.9473144118       -2.8821883342        1.8899033105
 O         -0.3448326374       -1.6531285998        0.4993814597
 C         -2.9526726321       -1.5296575751       -0.1230856969
 C         -2.7043893671       -1.0105129089       -1.3765909841
 C         -3.7631036219       -0.8703974942       -2.2624768186
 C         -5.0414259032       -1.2484186965       -1.8856134081
 C         -5.2741057669       -1.7731146419       -0.6225900148
 C         -4.2227566674       -1.9142396352        0.2665778676
 H         -4.3548073065       -2.3298167538        1.2517880962
 H         -6.2684412510       -2.0705005674       -0.3307552112
 H         -5.8585989350       -1.1354111307       -2.5805211409
 H         -3.5713099435       -0.4609202573       -3.2414281854
 H         -1.7064107836       -0.7145330541       -1.6623990998
 H         -2.1984116557       -0.7452654665        3.0594730277
 H         -1.6180982884        1.2822093130        4.1385673276
 H         -0.4631039511        3.4531749301        3.9872008305
 H          0.5959226145        4.1554691657        1.8750347096
 H          1.4296644727        3.5280778399       -0.2508444714
 C         -0.2548043077        3.3815984695       -1.5440742862
 C         -1.7440540818        3.2380599365       -1.5136748070
 C         -1.1157142664        4.5590901712       -1.1925099605
 H         -1.2061922632        5.3639640014       -1.9058873772
 H         -1.1244754592        4.8772245006       -0.1608970936
 H         -2.2514443015        3.1160202218       -2.4579612249
 H         -2.1858706562        2.6717211077       -0.7084765634
 H          0.2057897629        3.3887276355       -2.5261073986
