  62
        -98.93514999
 C         -0.2327091375       -1.8180323559        0.1655960182
 C         -0.8652829087       -0.9643347103       -0.7674549993
 C         -2.2322984675       -0.5153642632       -0.4249928664
 C         -2.7252051034       -0.7734005559        0.7980397199
 C         -4.0778177028       -0.4527876046        1.3858997971
 C         -4.7473375137        0.8726293706        0.9994280598
 C         -5.8987268246        0.7195192534        0.0026419955
 H         -6.4459052665       -0.1961994972        0.2361870062
 H         -6.5902923316        1.5542358535        0.1372208403
 C         -5.4872538616        0.6961351236       -1.4679396666
 H         -5.1481576131        1.6898635482       -1.7680821936
 H         -6.3772651733        0.4648888085       -2.0580422534
 C         -4.3935214768       -0.3149531983       -1.8135579061
 H         -4.5645322786       -1.2514539175       -1.2822410212
 H         -4.4618918237       -0.5367615422       -2.8807307053
 C         -2.9720870292        0.1948925792       -1.5243247802
 H         -2.3451331840        0.0694814075       -2.4124868142
 H         -2.9895708717        1.2672786206       -1.3209197848
 H         -4.0033759005        1.5632605750        0.6117481890
 H         -5.1567365241        1.3085134328        1.9122882068
 H         -4.7478390399       -1.2852009616        1.1505128939
 H         -3.9222077283       -0.4845306857        2.4670043179
 O         -2.0034000690       -1.4592839829        1.7314545506
 C         -0.7935287773       -2.0479860566        1.4245924937
 O         -0.3113056224       -2.7383614622        2.3444688518
 H          1.7300691019       -0.0200910595       -0.8909280836
 C          2.4283427395       -0.4114686928       -0.1668720913
 C          2.2605826216       -1.6939949552        0.3364612332
 C          3.1837246381       -2.1848897669        1.2524934297
 C          4.2512367518       -1.4065337960        1.6615279860
 C          4.4024730725       -0.1186254472        1.1819772794
 C          3.4806926041        0.3826463349        0.2676090871
 N          3.6034368199        1.6968446285       -0.1967799819
 S          2.3457779298        2.5652930882       -0.8465459725
 O          2.0573545170        2.1108965961       -2.1823462964
 O          2.7930546809        3.9407565121       -0.7464110958
 C          0.9058504380        2.3831326651        0.1978373066
 C         -0.2774628677        2.8585082385       -0.3309218765
 C         -1.4196940951        2.8488282021        0.4514170605
 C         -1.3707940710        2.3374103664        1.7386556743
 C         -0.1786813901        1.8556700677        2.2526230256
 C          0.9765308890        1.8949457849        1.4865209628
 H          1.9099093717        1.5371878854        1.8892588931
 H         -0.1399196905        1.4507505345        3.2515214667
 H         -2.2618834696        2.3169361557        2.3458351931
 H         -2.3403333108        3.2492748310        0.0566321011
 H         -0.2779069795        3.2252323300       -1.3450492676
 H          4.2666952105        2.2800381857        0.2902313759
 H          5.2214269058        0.5010931961        1.5131870440
 H          4.9631581764       -1.7988357627        2.3713720551
 H          3.0489383763       -3.1769061390        1.6566856585
 C          1.0837322284       -2.5358884914       -0.0901588315
 H          1.0630131478       -3.4238463459        0.5574614502
 C          1.2578699447       -2.9979159419       -1.5234318833
 C          2.1454635477       -4.1712412481       -1.8051290569
 C          0.6595729443       -4.3020437055       -1.9526629552
 H          0.2397512959       -4.3731551642       -2.9447320129
 H          0.1218904748       -4.8735800517       -1.2097924647
 H          2.7516165913       -4.1536176619       -2.6978241701
 H          2.6148113600       -4.6597052731       -0.9645974387
 H          1.2513261087       -2.1871243899       -2.2401362862
 O         -0.3529432055       -0.5977691339       -1.8583474837
