  62
        -98.94849461
 C         -1.2428343884       -1.5187567726        0.4934080343
 C         -2.1394439677       -1.1589475502       -0.5415111846
 C         -3.1698118252       -0.1747857526       -0.1814379854
 C         -3.2109699824        0.3126142974        1.0716487132
 C         -4.1877414461        1.3412721686        1.5617213296
 C         -3.6263488160        2.7625390043        1.4218934788
 C         -3.0464103123        3.0724391078        0.0413500829
 H         -2.7356985480        4.1201358133        0.0508352031
 H         -2.1371983848        2.4844869413       -0.1098540674
 C         -4.0160921887        2.8397761385       -1.1257142497
 H         -3.9333982097        3.6820246761       -1.8160866864
 H         -5.0424394680        2.8224769810       -0.7560859361
 C         -3.7467370883        1.5722571993       -1.9392820556
 H         -4.3183540059        1.6379345305       -2.8691965882
 H         -2.6871326607        1.5319973401       -2.2069203508
 C         -4.1242676573        0.2490615101       -1.2610754877
 H         -5.1450724640        0.3087012158       -0.8779267556
 H         -4.0855900630       -0.5374701428       -2.0205332994
 H         -4.4252317973        3.4713652754        1.6498158161
 H         -2.8305251849        2.8974967939        2.1582951237
 H         -4.3918807190        1.1450469410        2.6160377312
 H         -5.1148975762        1.2494012101        0.9992142167
 O         -2.3352478435       -0.0593215925        2.0397098845
 C         -1.3111564940       -0.9516487343        1.7646342786
 O         -0.5385266596       -1.1597544033        2.7236401995
 O         -2.0833101075       -1.6329948097       -1.7064659349
 C         -0.1064523236       -2.4819066138        0.2087018476
 C          0.8070186310       -1.9265014245       -0.8593818910
 C          1.5138508996       -2.7300723685       -1.7462911784
 C          2.3572156653       -2.1603866031       -2.6845922925
 C          2.5297219864       -0.7891856464       -2.7511028070
 C          1.8292809364        0.0222502128       -1.8662606225
 C          0.9817508792       -0.5527870819       -0.9339736542
 H          0.4237991877        0.0902285754       -0.2722664744
 N          1.9561296752        1.4186898349       -1.8956141069
 S          1.8582200086        2.2976431659       -0.4776862062
 O          0.5004795568        2.3387327478        0.0029611486
 O          2.4471703083        3.5761697936       -0.8150851661
 C          2.9220292852        1.4327777722        0.6635266068
 C          2.3995253232        0.6980303506        1.7073423943
 C          3.2656739626       -0.0024900379        2.5329763053
 C          4.6314820728        0.0446369787        2.3045761978
 C          5.1431923083        0.7962403562        1.2569361017
 C          4.2825687960        1.4936605577        0.4264541601
 H          4.6411327327        2.0981841117       -0.3907627845
 H          6.2066077719        0.8369299621        1.0848910850
 H          5.2992740001       -0.5050242494        2.9489353966
 H          2.8551792813       -0.5839218700        3.3434012210
 H          1.3332969560        0.6706340078        1.8708262289
 H          2.6644894279        1.7757279827       -2.5190422530
 H          3.1870169868       -0.3490781535       -3.4849677213
 H          2.8937545359       -2.7951098754       -3.3732705510
 H          1.3973512947       -3.8009052311       -1.7075175221
 H          0.4745615076       -2.5506493675        1.1413062062
 C         -0.6464045930       -3.8571050836       -0.1303716885
 C          0.0967849804       -5.0901830228        0.2851263419
 C         -1.1784238721       -4.7155355190        0.9766083658
 H         -2.0629809136       -5.3063466064        0.7921769736
 H         -1.1207975657       -4.3189285568        1.9801989585
 H          0.0863117672       -5.9447295862       -0.3746337886
 H          1.0205008152       -4.9605284942        0.8286844359
 H         -1.1789275920       -3.8709772365       -1.0741460075
