  62
        -98.93752426
 C         -2.4655867294       -1.3287036890        0.3418041566
 C         -2.5780150709       -0.4928421190       -0.7950906158
 C         -3.3704847943        0.7326724659       -0.6140179691
 C         -3.9213352181        1.0016758898        0.5831717410
 C         -4.7950886076        2.1781791647        0.9296097583
 C         -4.1232972415        3.5638245889        0.8711618428
 C         -4.3020466315        4.2970549798       -0.4639343817
 H         -5.1970435016        3.9160724741       -0.9570866234
 H         -4.4807479236        5.3550421093       -0.2619831104
 C         -3.1157031327        4.2224996446       -1.4300850780
 H         -2.3391745609        4.9155824430       -1.0979462329
 H         -3.4605119415        4.5604768749       -2.4096886488
 C         -2.4625591330        2.8483563990       -1.5841694871
 H         -1.8409823470        2.6344591712       -0.7101760224
 H         -1.7788470236        2.8877147716       -2.4348331421
 C         -3.4524597950        1.6822330295       -1.7732362873
 H         -4.4682191918        2.0556185225       -1.8945417457
 H         -3.1841541725        1.1102774654       -2.6636902532
 H         -4.5788830786        4.1696226451        1.6560841861
 H         -3.0646767716        3.4664408589        1.1126054604
 H         -5.6683133498        2.1713052699        0.2736188212
 H         -5.1411304128        1.9929143878        1.9485420354
 O         -3.7693484111        0.1793172354        1.6580851485
 C         -3.0284235357       -0.9878572716        1.5706740127
 O         -2.9427935505       -1.6239849381        2.6417407695
 O         -2.0542770819       -0.7564202141       -1.9081134861
 C         -1.6578934796       -2.6129443431        0.2644850017
 C         -0.2232521120       -2.2795553185       -0.0685018540
 C          0.4869973795       -2.8666437433       -1.1062496016
 C          1.7922637213       -2.4832587073       -1.3648322403
 C          2.4179650190       -1.5208853894       -0.5943730969
 C          1.7189597193       -0.9331119765        0.4523548236
 C          0.4128344642       -1.3179651522        0.7079040674
 H         -0.1343097976       -0.8553864998        1.5215848169
 N          2.3511427541        0.0365950518        1.2541020879
 S          3.0291557693        1.3632225028        0.4746166086
 O          3.0421244217        2.4163629880        1.4674548461
 O          2.3495304147        1.6578692673       -0.7655041338
 C          4.7022219082        0.8470213255        0.1531130779
 C          5.1937242207        0.8654288233       -1.1373495215
 C          6.5001739276        0.4594447502       -1.3620261772
 C          7.2869971302        0.0456227174       -0.2980999278
 C          6.7787674167        0.0358053239        0.9925251891
 C          5.4740901153        0.4410141792        1.2241764179
 H          5.0409100747        0.4511368319        2.2104153501
 H          7.3936468708       -0.2868129432        1.8171810201
 H          8.3024423707       -0.2713986310       -0.4758996896
 H          6.8968782447        0.4664849906       -2.3645214782
 H          4.5418646939        1.1886668897       -1.9333864986
 H          1.7816023402        0.3454911297        2.0291962623
 H          3.4320894619       -1.2173103407       -0.7965388645
 H          2.3299056229       -2.9411034700       -2.1810006487
 H          0.0155175802       -3.6147629317       -1.7216192905
 H         -1.6795955257       -3.0458903208        1.2753181944
 C         -2.3008361019       -3.5877192021       -0.6985493595
 C         -2.0984026490       -5.0618180980       -0.5226389825
 C         -3.4284773770       -4.4456595070       -0.2119712235
 H         -4.2561230434       -4.6357128428       -0.8786192957
 H         -3.7182657684       -4.3431139453        0.8239461875
 H         -2.0154696475       -5.6799094416       -1.4036746216
 H         -1.4859305938       -5.3867284865        0.3046912559
 H         -2.3712970863       -3.1936998655       -1.7054991166
