  62
        -98.93513846
 C         -2.2526558664       -0.4911547126        0.2315015769
 C         -3.5217153605       -0.9316736710        0.6714168987
 C         -4.6459950550        0.0015069168        0.4847198354
 C         -4.4195540652        1.2013648453       -0.0824147283
 C         -5.3524617872        2.3619058474       -0.3602835554
 C         -6.8672197382        2.1772568015       -0.3119526861
 C         -7.4382717688        1.2750643283       -1.4052979152
 H         -8.5053683207        1.1418329791       -1.2145095405
 H         -7.3330452425        1.7845909278       -2.3664412271
 C         -6.7824618209       -0.0971746990       -1.5379359655
 H         -5.7378218992        0.0221306633       -1.8329574055
 H         -7.2857995783       -0.6309632114       -2.3486607107
 C         -6.8487522874       -0.9772488588       -0.2912793604
 H         -7.8854954765       -1.0725132833        0.0370001899
 H         -6.4937579778       -1.9722048670       -0.5728116389
 C         -5.9978436155       -0.5036145729        0.9000845620
 H         -6.5227386278        0.2440978206        1.4896035447
 H         -5.8161434249       -1.3654881644        1.5486906698
 H         -7.3044602235        3.1708419350       -0.4431402935
 H         -7.1730270500        1.8263983161        0.6691724861
 H         -5.0760286328        3.1427383410        0.3569715521
 H         -5.0689516111        2.7390175249       -1.3480321635
 O         -3.1702203852        1.5876077422       -0.4797056506
 C         -2.0650275622        0.7637028722       -0.3432540743
 O         -1.0007699672        1.2588702146       -0.7630080730
 H          1.6223695635       -1.0656132709       -0.2091939421
 C          1.3350072571       -0.6464201226        0.7392000633
 C          0.0249774328       -0.7349973439        1.1820492604
 C         -0.3021507133       -0.1827554833        2.4183079141
 C          0.6531502992        0.4630861789        3.1774566607
 C          1.9536524535        0.5757756265        2.7176181499
 C          2.2952412607        0.0156778598        1.4929956554
 N          3.6273706377        0.0741466980        1.0363918120
 S          3.9712254771        0.4901004402       -0.5637779786
 O          3.5721306536        1.8564677119       -0.8256056018
 O          3.4490944014       -0.5181606604       -1.4487172486
 C          5.7509632361        0.3739027656       -0.5155247821
 C          6.3195125042       -0.8850138333       -0.4698748981
 C          7.6994120363       -0.9954706456       -0.4120242872
 C          8.4841289875        0.1484258254       -0.4010834037
 C          7.8995351477        1.4047058070       -0.4487129847
 C          6.5192252809        1.5219449304       -0.5050681262
 H          6.0208856762        2.4770532776       -0.5499893247
 H          8.5119486673        2.2919754852       -0.4425972332
 H          9.5581847484        0.0599652223       -0.3572482757
 H          8.1576948024       -1.9706636058       -0.3765062296
 H          5.6702695844       -1.7446245508       -0.4887924302
 H          4.2009226697        0.6475546196        1.6426949402
 H          2.6983331692        1.0925569962        3.3044881201
 H          0.3831794221        0.8919253227        4.1309900617
 H         -1.3222591075       -0.2596536784        2.7701297640
 C         -1.0583379523       -1.4147625330        0.3827835071
 H         -1.4256063150       -2.2760579369        0.9610016704
 C         -0.5970289708       -1.9027209876       -0.9740809160
 C          0.0937930109       -3.2260850504       -1.1046558889
 C         -1.3057023251       -3.0578535936       -1.6128976082
 H         -1.4705037124       -3.0349566831       -2.6797523075
 H         -2.1113900748       -3.5124673938       -1.0550632169
 H          0.8965559114       -3.3149679111       -1.8211457020
 H          0.2396081979       -3.8024764884       -0.2036546454
 H         -0.2741731005       -1.0935632196       -1.6215271084
 O         -3.7088808203       -2.0553695922        1.2108305131
