  62
        -98.93817313
 C         -2.5786015310       -1.3408777534        0.1473986658
 C         -2.5586615632       -0.3249260903       -0.8356262489
 C         -3.6752845159        0.6392711935       -0.8016446748
 C         -4.6347207955        0.4994815234        0.1294274474
 C         -5.8282668951        1.3843685338        0.3620209497
 C         -5.5167928548        2.4532828550        1.4230348575
 C         -4.8842608723        3.7339916314        0.8801031750
 H         -5.6336548824        4.2937938089        0.3166313683
 H         -4.5962850510        4.3444543413        1.7389548611
 C         -3.6559109659        3.5297324755       -0.0105887171
 H         -3.0925457194        4.4649231964       -0.0257715354
 H         -3.0039611160        2.7706289781        0.4263873042
 C         -4.0143464508        3.1428424519       -1.4532177113
 H         -5.0806919355        3.3028764878       -1.6115289117
 H         -3.4950656698        3.8092181406       -2.1453361759
 C         -3.6406282564        1.7098537463       -1.8582852121
 H         -4.2777515297        1.3975427308       -2.6928126501
 H         -2.6112884133        1.6960996255       -2.2315392997
 H         -6.4446935149        2.7237081067        1.9308910637
 H         -4.8553005816        2.0032531170        2.1676906993
 H         -6.1606405837        1.8368250120       -0.5673581141
 H         -6.6221683952        0.7385133885        0.7428636033
 O         -4.6121238150       -0.4938873685        1.0605170783
 C         -3.5906538795       -1.4217720963        1.1052924297
 O         -3.6929203952       -2.2586275628        2.0243273319
 O         -1.6571955428       -0.2196467578       -1.7099674097
 C         -1.4726095735       -2.3815116352        0.2179287868
 C         -0.1764704034       -1.6817239083        0.5460982594
 C          0.0079776867       -1.1873332891        1.8351034777
 C          1.1576925523       -0.4978780467        2.1682074267
 C          2.1457692322       -0.2795555735        1.2227512794
 C          1.9633303146       -0.7525281081       -0.0687750326
 C          0.8135752132       -1.4617742591       -0.3965208275
 H          0.6825927504       -1.8158177796       -1.4065211944
 N          2.9571026058       -0.5408427039       -1.0369467663
 S          3.7204677452        0.9489105882       -1.1243620173
 O          2.8628420685        2.0271547040       -0.6907104781
 O          4.2237169067        1.0316522850       -2.4784233927
 C          5.0992423032        0.7770976807       -0.0085390567
 C          5.9068864653       -0.3364713977       -0.1329664676
 C          6.9906534570       -0.4758734055        0.7191168355
 C          7.2502265679        0.4965511441        1.6734216782
 C          6.4326719882        1.6107393598        1.7831837152
 C          5.3458436190        1.7552642434        0.9347246319
 H          4.6791371571        2.6014190990        0.9883854820
 H          6.6357351836        2.3662695082        2.5251620651
 H          8.0944547422        0.3855132860        2.3354665228
 H          7.6283150383       -1.3413262781        0.6371473322
 H          5.6732705547       -1.0683723707       -0.8878643732
 H          2.7056649012       -0.8736091079       -1.9565779503
 H          3.0395556436        0.2679723929        1.4731917439
 H          1.2882103913       -0.1237082724        3.1723745208
 H         -0.7713800329       -1.3453709102        2.5684606442
 H         -1.7294059979       -3.0344100610        1.0631205775
 C         -1.4248471935       -3.2164326765       -1.0441748774
 C         -0.7007392130       -4.5282164824       -1.0341635708
 C         -2.1975115636       -4.4984497810       -1.0994192978
 H         -2.6801110730       -4.7683594028       -2.0268513672
 H         -2.7557825456       -4.7821621042       -0.2191973076
 H         -0.1544550946       -4.8240143441       -1.9168675962
 H         -0.2401958013       -4.8342021956       -0.1071420708
 H         -1.3919439781       -2.6210377708       -1.9487299642
