  62
        -98.94192845
 C         -1.1767344437       -1.5698829664        0.5067029669
 C         -2.1206153184       -1.2027449991       -0.4810571506
 C         -3.1566107645       -0.2417815616       -0.0661688506
 C         -3.1603214361        0.2271638391        1.1931461392
 C         -4.1331327294        1.1848564981        1.8341679706
 C         -4.5446308410        2.4224284637        1.0249549532
 C         -3.4626507484        2.9854948239        0.0911993755
 H         -3.3720018322        4.0603271062        0.2623395070
 H         -2.4884645766        2.5457556929        0.3180585476
 C         -3.7852255375        2.7756118272       -1.3903955539
 H         -4.8410199356        3.0036758594       -1.5556245768
 H         -3.1985959673        3.4870141386       -1.9769616563
 C         -3.4814257905        1.3819612878       -1.9376368052
 H         -2.3982158710        1.2312150465       -1.9707556174
 H         -3.8431479886        1.3379553573       -2.9680220049
 C         -4.0930472212        0.2127342872       -1.1477085258
 H         -5.0729031945        0.4717041370       -0.7539248780
 H         -4.2015394808       -0.6343274856       -1.8305239092
 H         -5.4330877498        2.1945972553        0.4371536502
 H         -4.8332995380        3.1882871036        1.7470365497
 H         -5.0310898580        0.6248575122        2.1118989254
 H         -3.6492708223        1.5010346024        2.7615034463
 O         -2.2385382906       -0.1651649730        2.1174756639
 C         -1.2091449730       -1.0308348569        1.7903212783
 O         -0.3983490924       -1.2408449860        2.7171309252
 H          0.4216024452        0.1357119416       -0.1866598658
 C          0.9596315067       -0.4430306224       -0.9204279769
 C          0.8291504229       -1.8239090202       -0.9310772121
 C          1.5088965672       -2.5421199625       -1.9074158219
 C          2.2808792386       -1.8823975897       -2.8484850605
 C          2.4091940648       -0.5048185026       -2.8299639300
 C          1.7367248702        0.2215642560       -1.8542076018
 N          1.8211583068        1.6202262621       -1.7888988834
 S          1.7873589263        2.3818393151       -0.3007974135
 O          0.4568137724        2.3608590117        0.2529759514
 O          2.3384373112        3.6943460707       -0.5640762070
 C          2.9262679478        1.4471522532        0.7054289066
 C          4.2673412656        1.5358405839        0.3817166657
 C          5.1851137810        0.7883324904        1.0997832313
 C          4.7487328507       -0.0393313518        2.1238477526
 C          3.4019389285       -0.1130438284        2.4407287460
 C          2.4785997112        0.6364204705        1.7274940171
 H          1.4259649014        0.5868704036        1.9597785488
 H          3.0501675352       -0.7532131466        3.2342965183
 H          5.4607561979       -0.6279803113        2.6804117605
 H          6.2340128322        0.8492743019        0.8586612360
 H          4.5676278825        2.1992550225       -0.4129870254
 H          2.4826013474        2.0442684855       -2.4218988996
 H          3.0107501543        0.0050288797       -3.5664800946
 H          2.7958430345       -2.4511376387       -3.6076370815
 H          1.4263211315       -3.6163517454       -1.9365360284
 C         -0.0138733054       -2.4728591257        0.1429462388
 H          0.6047869425       -2.5522122411        1.0501416389
 C         -0.5016328277       -3.8560968223       -0.2368016519
 C          0.3250561618       -5.0655918487        0.0782316216
 C         -0.9294239527       -4.7936823929        0.8509458397
 H         -1.7908122959       -5.4220012081        0.6815690935
 H         -0.8393891235       -4.4429816891        1.8691228398
 H          1.2685588735       -4.9119478107        0.5799225960
 H          0.3238067028       -5.8869282813       -0.6224696371
 H         -1.0816144918       -3.8533203738       -1.1521591785
 O         -2.1020771019       -1.6519043436       -1.6566083346
