  62
        -98.94450673
 C         -1.9560749098       -1.3334439999        0.0822550714
 C         -2.2373918498       -0.3697753110       -0.9165341397
 C         -3.6143860398        0.1423148392       -0.9430727400
 C         -4.5244692797       -0.3156365097       -0.0655137893
 C         -5.9717895696        0.0882942606        0.0082435805
 C         -6.2233368193        1.3759936816        0.8043842290
 C         -5.7812164192        2.6654359507        0.1114520175
 H         -6.2060060394        2.7017348096       -0.8922580625
 H         -6.2094371490        3.4958573615        0.6763132766
 C         -4.2594957592        2.8532548704        0.0361001170
 H         -3.7734771591        2.1858396512        0.7518339277
 H         -4.0033627590        3.8742249707        0.3285402858
 C         -3.6589944194        2.6152145887       -1.3494855929
 H         -2.5754455994        2.7410136586       -1.2776914632
 H         -4.0384963494        3.3656781880       -2.0466896837
 C         -3.9398057098        1.2230065581       -1.9301186312
 H         -4.9807882898        1.1505211479       -2.2440018309
 H         -3.2997723999        1.0807152370       -2.8042747311
 H         -5.7228589091        1.2925145526        1.7719119690
 H         -7.2979200992        1.4390813420        0.9906412091
 H         -6.4969550597       -0.7307090387        0.5045067815
 H         -6.3735067298        0.1981851096       -0.9995039896
 O         -4.2209835597       -1.2497710086        0.8731216017
 C         -2.9407652697       -1.7627314287        0.9799795321
 O         -2.8038638097       -2.5970235477        1.8968863330
 O         -1.4042457499        0.0567466479       -1.7614029403
 C         -0.5919705599       -1.9826425199        0.2630796019
 C          0.3772792704       -1.0633190493        0.9667610207
 C          0.8929993305       -1.3906550079        2.2151051610
 C          1.8080729108       -0.5614998273        2.8410875699
 C          2.2286953109        0.6081150919        2.2340408584
 C          1.7136694607        0.9455126505        0.9892390081
 C          0.8007398105        0.1116193900        0.3617847193
 H          0.3989062203        0.3832415189       -0.6030612010
 N          2.1531030008        2.1259543497        0.3524697767
 S          3.8033834907        2.1954006391        0.0596967763
 O          4.4871410010        2.5419776304        1.2804140758
 O          3.9686286707        3.1152898078       -1.0431284048
 C          4.2300778004        0.5338848485       -0.4285356418
 C          3.8243931201        0.0988216471       -1.6744515312
 C          4.0737862098       -1.2136744333       -2.0396714198
 C          4.7125043998       -2.0668830324       -1.1529432989
 C          5.1136072201       -1.6144686910        0.0941339305
 C          4.8692762604       -0.3017643306        0.4642377990
 H          5.1648202706        0.0906799505        1.4232171585
 H          5.6106643601       -2.2806735003        0.7805990512
 H          4.8996049596       -3.0906731628       -1.4365468178
 H          3.7643177296       -1.5658491544       -3.0107933593
 H          3.3320017501        0.7908185065       -2.3389946020
 H          1.6457262807        2.3174282988       -0.5003262434
 H          2.9469294410        1.2634279623        2.6999983976
 H          2.1989069009       -0.8293231963        3.8108024301
 H          0.5632533605       -2.2985410273        2.6990093521
 H         -0.7648314999       -2.8478360191        0.9164128329
 C          0.0037671398       -2.4788888815       -1.0417086476
 C          1.0845122496       -3.5147089016       -0.9955629066
 C         -0.2816497705       -3.8776741620       -1.4939587460
 H         -0.4176848107       -4.0597261232       -2.5494610357
 H         -0.9111688605       -4.4883087412       -0.8627858051
 H          1.8914760195       -3.4464172826       -1.7079875668
 H          1.3837707497       -3.8807546106       -0.0253490562
 H          0.0691974098       -1.7140609624       -1.8037083685
