  62
        -98.94946610
 C         -2.0494273788       -0.3792030231       -0.3176830572
 C         -1.3883730984       -1.3033094406       -1.1597117564
 C         -1.0209637188       -2.5837014886       -0.5444728750
 C         -1.2739119515       -2.7912465255        0.7607256130
 C         -0.9612453533       -4.0429232405        1.5353635132
 C          0.4886870210       -4.1146190659        2.0337342454
 C          1.5274621269       -4.4408819329        0.9601688594
 H          2.4537381540       -4.6961499097        1.4788761662
 H          1.2096804652       -5.3235830687        0.4032986194
 C          1.8117926651       -3.2874532136       -0.0117617044
 H          1.4681782200       -2.3495909037        0.4328330351
 H          2.8914629489       -3.1897317915       -0.1530892046
 C          1.1883916143       -3.4598290439       -1.3969098278
 H          1.4426427294       -2.5846416636       -1.9984116086
 H          1.6226150058       -4.3365374617       -1.8832631281
 C         -0.3381846806       -3.6126513962       -1.3969173618
 H         -0.6122215623       -4.6131764418       -1.0618525332
 H         -0.6940260100       -3.4781597301       -2.4217751966
 H          0.7434817740       -3.1613179752        2.5044337943
 H          0.5330322801       -4.8902254583        2.8022457505
 H         -1.6248375644       -4.0434869388        2.4028749934
 H         -1.1832565377       -4.9203971089        0.9267042695
 O         -1.8854818248       -1.8662104849        1.5455366977
 C         -2.2782899714       -0.6395800479        1.0338134503
 O         -2.8258615573        0.1106528030        1.8652889481
 O         -1.1194565751       -1.0715603548       -2.3702171761
 C         -2.4586742947        0.9759689928       -0.8709236177
 C         -1.7959211471        2.0576127433       -0.0535395693
 C         -2.4582070073        3.1583846787        0.4712208645
 C         -1.7811163653        4.0539828052        1.2821947025
 C         -0.4492871492        3.8632019877        1.5994302112
 C          0.2285464831        2.7738940916        1.0599980726
 C         -0.4403047982        1.9108833298        0.2110047614
 H          0.0819070084        1.0647238242       -0.2037026221
 N          1.5796219971        2.5505630847        1.3501786254
 S          2.3063108271        1.0483867809        1.2383851627
 O          1.3901349502       -0.0390697243        1.4873042550
 O          3.4398297974        1.1438938245        2.1346465676
 C          2.9104640063        1.0251738139       -0.4370780454
 C          2.3127021647        0.2373910487       -1.3984737412
 C          2.7999243619        0.2723197343       -2.6958358221
 C          3.8742726144        1.0897442113       -3.0088018375
 C          4.4695691197        1.8727738915       -2.0307205849
 C          3.9842855862        1.8429982474       -0.7340155035
 H          4.4227749739        2.4265131928        0.0582735281
 H          5.3070151510        2.5057580362       -2.2760616138
 H          4.2486698959        1.1138682265       -4.0199910695
 H          2.3278224063       -0.3359436809       -3.4514248017
 H          1.4768793866       -0.3908399951       -1.1314192089
 H          1.9650870506        3.1143572638        2.0920112626
 H          0.0627294667        4.5427095397        2.2635195538
 H         -2.3070722760        4.9020482183        1.6942412929
 H         -3.5058868120        3.3055412805        0.2661869808
 H         -2.0594711170        1.0118024415       -1.8954908660
 C         -3.9666788815        1.0958700893       -0.9275112873
 C         -4.6167018978        1.9834921535       -1.9455698705
 C         -4.6994835865        0.4942583298       -2.0877670641
 H         -5.6454432800        0.0076378811       -1.9032748291
 H         -4.1058473611        0.0172499563       -2.8537817297
 H         -5.5105152150        2.5202352640       -1.6655650900
 H         -3.9717051726        2.5217250997       -2.6232715304
 H         -4.4252543078        1.0139710914        0.0518939521
