  62
        -98.94066418
 C          1.8626217866        1.5757536847       -0.0749467050
 C          1.6100166935        0.4394841505       -0.8761373770
 C          2.7195471106       -0.5202171662       -1.0171356056
 C          3.8912508018       -0.2602600250       -0.4121577061
 C          5.1064925588       -1.1438136719       -0.3730659364
 C          5.0991277125       -2.0084345990        0.8992568570
 C          4.3313294368       -3.3246417185        0.7804231925
 H          4.8937166750       -4.0102619251        0.1430671483
 H          4.2900362314       -3.7659858089        1.7788559817
 C          2.9046422061       -3.2109971720        0.2351067154
 H          2.3601332751       -4.1045895773        0.5469742768
 H          2.4054187194       -2.3513030897        0.6867252465
 C          2.8501573491       -3.1083708489       -1.2969399543
 H          2.1324291905       -3.8354262990       -1.6829221206
 H          3.8217383793       -3.3901848976       -1.7029987488
 C          2.4394629550       -1.7357563947       -1.8577770518
 H          1.3575506169       -1.7153071745       -2.0231247094
 H          2.9065773573       -1.5971614117       -2.8383101688
 H          4.6778399798       -1.4073303212        1.7092085035
 H          6.1306672859       -2.2426422327        1.1698832017
 H          5.1638122396       -1.7588955839       -1.2663884617
 H          5.9757557805       -0.4838406472       -0.3414026879
 O          4.1035224014        0.8637753819        0.3254869903
 C          3.1022899531        1.7948819143        0.5275198545
 O          3.4299061904        2.7575150525        1.2499977869
 O          0.5075180368        0.2210998528       -1.4435386268
 C          0.7634233530        2.5918193946        0.1887720938
 C         -0.3279941277        1.9219359743        0.9895489135
 C         -0.0190802685        1.4779731429        2.2742919031
 C         -0.9671134451        0.8443009050        3.0525599462
 C         -2.2431090103        0.6292844594        2.5598848108
 C         -2.5616205181        1.0652298450        1.2804182927
 C         -1.6090777311        1.7148374260        0.5038226038
 H         -1.8838764691        2.0313726167       -0.4880643979
 N         -3.8577262190        0.8735451126        0.7622069886
 S         -4.0394082609       -0.0070738626       -0.6539176749
 O         -3.4179554752        0.6894424239       -1.7482381214
 O         -5.4666425474       -0.2243110306       -0.7640621581
 C         -3.2286768440       -1.5582040928       -0.3090870072
 C         -1.8588649736       -1.6599777277       -0.4425185211
 C         -1.2437030965       -2.8499117123       -0.0825729003
 C         -1.9989458046       -3.9072996332        0.3992293913
 C         -3.3751825917       -3.7881678551        0.5235875442
 C         -3.9967377048       -2.6011260239        0.1731834409
 H         -5.0634503144       -2.4641441123        0.2500959659
 H         -3.9621777091       -4.6128457003        0.8948575304
 H         -1.5118803574       -4.8287680368        0.6772558954
 H         -0.1727342949       -2.9350270197       -0.1802066374
 H         -1.2882629770       -0.8286330020       -0.8271762944
 H         -4.5139982120        0.5247714017        1.4477151999
 H         -2.9876302058        0.1317664813        3.1630010894
 H         -0.7123330488        0.5105241655        4.0469953354
 H          0.9813848608        1.6424259744        2.6516490726
 H          1.2177372701        3.3672022638        0.8221696912
 C          0.2818668417        3.2356329190       -1.0927712497
 C         -0.4032145829        4.5668123028       -1.0379694759
 C          0.9818911019        4.4588148016       -1.6000047127
 H          1.1178724953        4.5703521278       -2.6653296248
 H          1.8038125106        4.8422211164       -1.0125425525
 H         -1.2220114390        4.7521951260       -1.7167226328
 H         -0.5221662306        5.0276712221       -0.0688372879
 H         -0.0613549418        2.5190242018       -1.8295346025
