  62
        -98.93887933
 C          1.9990201395        1.3555517880       -0.0028503253
 C          2.6072016767        0.7536085862        1.1217439021
 C          3.7919514360       -0.0815752642        0.8593304919
 C          4.2148920633       -0.2327530044       -0.4079899624
 C          5.3567360049       -1.0821213868       -0.8936920496
 C          4.8560447344       -2.4726838933       -1.3199050536
 C          4.7811320757       -3.5040855595       -0.1944894509
 H          4.2888033310       -4.3914335517       -0.5993636683
 H          5.7934977290       -3.7946677219        0.0938692824
 C          4.0270096480       -3.0525605231        1.0591774483
 H          3.7203963695       -3.9470425689        1.6052316807
 H          3.1164273821       -2.5243141566        0.7694733796
 C          4.8735882238       -2.1691366668        1.9879718894
 H          4.8286121303       -2.5671998533        3.0038240707
 H          5.9170402495       -2.2281540636        1.6791416728
 C          4.4417793603       -0.6967942737        2.0688001749
 H          3.7044795727       -0.5778695610        2.8691062602
 H          5.3070435587       -0.0868114685        2.3485191039
 H          3.8687398362       -2.3489578878       -1.7730010940
 H          5.5214986432       -2.8638266863       -2.0921134222
 H          6.1312128940       -1.1578841763       -0.1362352271
 H          5.7686731447       -0.5781060410       -1.7703912256
 O          3.5900027774        0.3532727916       -1.4658588806
 C          2.4690491447        1.1496616368       -1.2998684118
 O          1.9982296461        1.6038059393       -2.3587951834
 O          2.1703372486        0.8957876124        2.2969910922
 C          0.7693320213        2.2218854073        0.2008473015
 C         -0.4150727531        1.6068440734       -0.5039935857
 C         -1.2696820414        2.3181473175       -1.3349864347
 C         -2.3315609669        1.6833825716       -1.9575462441
 C         -2.5709878531        0.3368399448       -1.7586772445
 C         -1.7348336916       -0.3796911465       -0.9106055614
 C         -0.6742708938        0.2583409086       -0.2870312150
 H         -0.0226712502       -0.3026247606        0.3716952021
 N         -1.9778406812       -1.7446469570       -0.6851276186
 S         -3.5565517018       -2.2343665082       -0.4273165903
 O         -3.4531421512       -3.4350266518        0.3720734959
 O         -4.2334728266       -2.3783589519       -1.6920764233
 C         -4.3091525508       -0.9182746911        0.5134892871
 C         -3.7544370320       -0.5931229315        1.7356536924
 C         -4.3058694533        0.4463173656        2.4666673554
 C         -5.3975907042        1.1393637659        1.9658339067
 C         -5.9465131324        0.7970780055        0.7399843533
 C         -5.3974621928       -0.2404654827        0.0033385346
 H         -5.7904165157       -0.5378369375       -0.9552377380
 H         -6.7967034523        1.3360967667        0.3542475190
 H         -5.8219805632        1.9502750462        2.5364484108
 H         -3.8794415677        0.7131547706        3.4204524266
 H         -2.9082115496       -1.1534592847        2.1005448120
 H         -1.3455770770       -2.1734382339       -0.0260856714
 H         -3.3804670877       -0.1746179876       -2.2535740574
 H         -2.9798255337        2.2456975474       -2.6118520295
 H         -1.0989720221        3.3679070112       -1.5059702155
 H          0.5717534443        2.1958682548        1.2829110003
 C          1.0493903168        3.6521361217       -0.2078535900
 C          0.3073364570        4.7805196076        0.4419704344
 C          1.7542982074        4.5546993492        0.7585788986
 H          2.4842246586        5.2514554855        0.3745376899
 H          2.0109526727        4.1439082784        1.7242615919
 H          0.0439728737        5.6378887011       -0.1586867018
 H         -0.4210343840        4.5298469225        1.1980371143
 H          1.3092297333        3.7426516615       -1.2564502485
