  62
        -98.93966573
 C         -1.5011605174       -1.5794135920        0.2452849058
 C         -1.6777457412       -0.4635164648        1.1012864418
 C         -2.8849542715        0.3586835937        0.9020201984
 C         -3.7527491153        0.0030449730       -0.0632999512
 C         -5.0235654750        0.7074540662       -0.4520718636
 C         -4.7687550250        1.9571709638       -1.3186045480
 C         -3.5106267186        2.7479902699       -0.9629072608
 H         -2.6576304346        2.0666079874       -0.9565217182
 H         -3.3366229824        3.4743046863       -1.7609915993
 C         -3.5728735972        3.5157311011        0.3566371461
 H         -2.6001656243        3.9880354816        0.5174355134
 H         -4.3148421615        4.3127187280        0.2643971078
 C         -3.9256910698        2.6939409090        1.5955734242
 H         -3.8379367742        3.3569249139        2.4617518258
 H         -4.9647408883        2.3784043189        1.5520896264
 C         -3.0155928006        1.5002455370        1.8808701760
 H         -1.9947642418        1.8604985923        2.0513111674
 H         -3.3271931746        1.0545823763        2.8342658749
 H         -4.6639821551        1.6278995115       -2.3546938121
 H         -5.6418949196        2.6083262045       -1.2587116512
 H         -5.6162034596       -0.0033268836       -1.0315182054
 H         -5.5871130086        0.9551025999        0.4434001902
 O         -3.5391667949       -1.0673999694       -0.8735780598
 C         -2.4241685753       -1.8795966764       -0.7570250386
 O         -2.3952777402       -2.8048260719       -1.5909258161
 O         -0.8539973618       -0.1615553628        2.0081842022
 C         -0.2587980447       -2.4245869832        0.4726907224
 C          0.8405646509       -2.0272747089       -0.4833991879
 C          0.7412936511       -2.2655117237       -1.8506628478
 C          1.7632984328       -1.8851580135       -2.7005282192
 C          2.8908510063       -1.2482939019       -2.2111657535
 C          2.9970648940       -1.0004462966       -0.8481058764
 C          1.9778218295       -1.4011019296        0.0055407778
 H          2.0779413191       -1.2098960767        1.0631623519
 N          4.1314353626       -0.3618452008       -0.3205099405
 S          3.9492964438        0.8572972333        0.8134452269
 O          5.2294765655        1.5315232557        0.8179099682
 O          3.5223825469        0.3028573711        2.0715045031
 C          2.7072694313        1.9310298172        0.1186351444
 C          1.3800755801        1.7909492494        0.4685030249
 C          0.4409283947        2.5989223517       -0.1536755187
 C          0.8354979611        3.5248039660       -1.1054568855
 C          2.1748750863        3.6572870474       -1.4404859951
 C          3.1189457600        2.8508172463       -0.8277317565
 H          4.1708157939        2.9281702449       -1.0510966160
 H          2.4824458489        4.3821056911       -2.1768816749
 H          0.0949087147        4.1459478149       -1.5843483714
 H         -0.5982128621        2.4884111964        0.1125467622
 H          1.0824442528        1.0686365588        1.2127411613
 H          4.8191499603       -0.1020943291       -1.0131282551
 H          3.6848655584       -0.9482041745       -2.8778877367
 H          1.6779261731       -2.0793266763       -3.7589746394
 H         -0.1479161203       -2.7377990389       -2.2386305900
 H          0.0805618117       -2.1695371331        1.4863203922
 C         -0.5184719949       -3.9169644214        0.4208934919
 C          0.4623260191       -4.8419401397        1.0743573426
 C         -0.8945289347       -4.6393747245        1.6779178567
 H         -1.6143799784       -5.4415662278        1.6148525559
 H         -0.9665383934       -4.0596192749        2.5869442844
 H          0.6772673973       -5.7856019698        0.5971180578
 H          1.3108531655       -4.3985831947        1.5742348527
 H         -0.9864327501       -4.2455066129       -0.4973996643
