  62
        -98.93905962
 C          1.5063599487        0.9278685260       -0.3719449014
 C          2.8065224979        1.4773569836       -0.3212346890
 C          3.9230660153        0.5317231817       -0.4982965637
 C          3.6500706890       -0.7687184552       -0.7036576534
 C          4.6329020819       -1.8957051850       -0.8640756108
 C          4.9005171905       -2.5810991132        0.4864955672
 C          6.0152773896       -1.9490041764        1.3189795857
 H          6.0114767658       -2.4403353465        2.2947373579
 H          6.9783340364       -2.1612576000        0.8498518918
 C          5.8973814347       -0.4371665573        1.5296277275
 H          4.8614504070       -0.1767687768        1.7542778214
 H          6.4935986971       -0.1733825975        2.4054251446
 C          6.3927830609        0.3806378270        0.3274344475
 H          6.9376030027       -0.2764932603       -0.3501687076
 H          7.1078025426        1.1312218700        0.6709397588
 C          5.3014884482        1.1325980201       -0.4491339699
 H          5.1554239035        2.1223468429       -0.0046591403
 H          5.6460817641        1.3013198550       -1.4749877442
 H          3.9672655613       -2.5753814636        1.0553391008
 H          5.1658612630       -3.6243974382        0.3040528233
 H          4.1671110488       -2.6203452926       -1.5350234649
 H          5.5550475295       -1.5426707047       -1.3159408950
 O          2.3795953040       -1.2565737278       -0.7423241782
 C          1.2784355857       -0.4340187175       -0.5709280493
 O          0.1826927298       -1.0197650332       -0.6168837796
 O          3.0284609605        2.7039182246       -0.1261140321
 C          0.3053668482        1.8408670750       -0.2097279133
 C         -0.5634865287        1.3562297568        0.9234040226
 C          0.0224732213        1.1019420320        2.1614798737
 C         -0.7337028671        0.6387773335        3.2197502653
 C         -2.0900667331        0.4086811737        3.0654897618
 C         -2.6866893334        0.6711820835        1.8390681995
 C         -1.9263871907        1.1531135668        0.7814169518
 H         -2.4204093185        1.3669255802       -0.1504668102
 N         -4.0607253011        0.4686261948        1.6569335368
 S         -4.6761273982        0.0176645029        0.1727744011
 O         -4.7195375052        1.1549159704       -0.7125892357
 O         -5.9598209596       -0.5720162956        0.4919192206
 C         -3.5887943752       -1.2346006764       -0.4812813520
 C         -3.0846974889       -1.0974266445       -1.7572631279
 C         -2.2695320096       -2.0934771269       -2.2674797723
 C         -1.9701452455       -3.2023900844       -1.4942199636
 C         -2.4840051804       -3.3259281240       -0.2135935005
 C         -3.3037971421       -2.3356798785        0.3000397341
 H         -3.7221547565       -2.4088181448        1.2910520066
 H         -2.2418046974       -4.1878808947        0.3874820702
 H         -1.3246390430       -3.9705830073       -1.8897683800
 H         -1.8609459516       -1.9961547424       -3.2609125981
 H         -3.3345610060       -0.2133722479       -2.3230939974
 H         -4.5355797033        0.0116144880        2.4207805349
 H         -2.6812295088        0.0352523545        3.8875327012
 H         -0.2637549199        0.4452838377        4.1723492563
 H          1.0845377747        1.2691785457        2.2794250288
 H          0.7140851033        2.8257633633        0.0607906258
 C         -0.4354697564        1.9632082146       -1.5246545997
 C         -1.2461106732        3.1873107609       -1.8248652850
 C          0.0435172465        2.9456635111       -2.5490428810
 H          0.0074414624        2.6644141676       -3.5908298550
 H          0.8974016829        3.5549332325       -2.2908530418
 H         -2.1754845067        3.0726443328       -2.3629669451
 H         -1.2695827875        3.9657536064       -1.0770971455
 H         -0.8027533997        1.0069682945       -1.8821112152
