  62
        -98.94438740
 C         -2.3381463216       -1.1263647348        0.2426236083
 C         -2.3761523688        0.1254913890       -0.4182801032
 C         -3.3530743913        1.0916704838        0.1021713801
 C         -4.1113119272        0.7764615505        1.1672809153
 C         -5.1310751978        1.6649779393        1.8263224106
 C         -6.5078604963        1.6464835894        1.1479967872
 C         -6.5811121522        2.3714493005       -0.1964396876
 H         -6.1780713701        3.3787912300       -0.0872133592
 H         -7.6384711655        2.4692944071       -0.4502255763
 C         -5.8631440397        1.6495816793       -1.3452391708
 H         -6.5060766556        1.6408836956       -2.2282182954
 H         -5.6865150248        0.6080442143       -1.0673070810
 C         -4.5344992226        2.2821330409       -1.7597616668
 H         -4.7136444891        3.2805534376       -2.1650244529
 H         -4.0958903134        1.6709230542       -2.5526682663
 C         -3.5074931376        2.3934273638       -0.6251552950
 H         -3.7955454742        3.1844189998        0.0671171875
 H         -2.5377166768        2.6482694515       -1.0605971273
 H         -7.2136301871        2.1231101863        1.8321241699
 H         -6.8195754543        0.6074948550        1.0192469247
 H         -5.2459904945        1.2990698949        2.8488805747
 H         -4.7555392953        2.6880185077        1.8640081225
 O         -4.0172572773       -0.4232873076        1.7992244919
 C         -3.1451703589       -1.3996901124        1.3507686514
 O         -3.1783856508       -2.4563017823        2.0124308458
 H          0.4744981848       -0.8540540767       -1.6572941930
 C          0.8314030389       -1.1027891967       -0.6705895921
 C          0.0177034426       -1.8155671660        0.1959079568
 C          0.4861669965       -2.0883083204        1.4780235442
 C          1.7395032433       -1.6622851496        1.8758692246
 C          2.5478114708       -0.9469250687        1.0089816210
 C          2.0813261293       -0.6534805591       -0.2647182654
 N          2.8866664992        0.0838350999       -1.1497584918
 S          3.6332428015        1.4724586546       -0.5748091307
 O          2.8857957667        2.0822478606        0.5008895437
 O          3.8623774225        2.2921324008       -1.7449811458
 C          5.2028839341        0.8823204604        0.0277163898
 C          5.9742295909        0.1057869002       -0.8148174170
 C          7.2026261458       -0.3517445060       -0.3657364916
 C          7.6387271363       -0.0242894728        0.9095525509
 C          6.8545735656        0.7593261630        1.7420092461
 C          5.6239413319        1.2192055612        1.2991439331
 H          4.9774235025        1.8253039189        1.9139164450
 H          7.1947903202        1.0132905463        2.7330971839
 H          8.5950409238       -0.3821187927        1.2569805712
 H          7.8148123294       -0.9619407763       -1.0100747132
 H          5.6002130926       -0.1246447286       -1.7982481881
 H          2.4399225637        0.2640838771       -2.0377977069
 H          3.5209265298       -0.6010625732        1.3171323617
 H          2.0911514515       -1.8852307834        2.8717899003
 H         -0.1545025445       -2.6254280067        2.1636611467
 C         -1.3826754044       -2.2309105969       -0.1847333779
 H         -1.6507159661       -3.1073317952        0.4197795621
 C         -1.5373315773       -2.5867733397       -1.6487893666
 C         -0.9390550650       -3.8633810233       -2.1558574790
 C         -2.4264572018       -3.7295001596       -2.0327743885
 H         -3.0142314058       -3.6433546267       -2.9344822737
 H         -2.9246859650       -4.2645987256       -1.2374405080
 H         -0.4262139291       -4.4895022418       -1.4415769177
 H         -0.5035422688       -3.8732086989       -3.1432407240
 H         -1.5310697076       -1.7271426967       -2.3066115704
 O         -1.6455192196        0.4360681032       -1.3963480764
