  62
        -98.93469171
 C          0.7475560806        1.6174825599        0.7745882900
 C          1.4165891405        1.5002836897       -0.4682340601
 C          2.6019319605        0.6242484198       -0.4839504502
 C          2.9351204007       -0.0555717600        0.6271355299
 C          4.0803881508       -1.0204086899        0.7515768098
 C          3.7293926708       -2.3631144400        0.0809255701
 C          4.5821025906       -2.7009171702       -1.1416290200
 H          5.5750529507       -3.0112461401       -0.8095486001
 H          4.1184781705       -3.5559762103       -1.6376094098
 C          4.7596658603       -1.5707705803       -2.1596426302
 H          5.5346278104       -0.8843095702       -1.8150241205
 H          5.1341342802       -2.0246440904       -3.0796464802
 C          3.4981248802       -0.7613270404       -2.4869497901
 H          3.5023993201       -0.5439816806       -3.5570231102
 H          2.5998246603       -1.3450284105       -2.2857422399
 C          3.4002921103        0.5915553697       -1.7582975003
 H          2.8986209201        1.3055280695       -2.4184656803
 H          4.4065059903        0.9751131997       -1.5653117805
 H          3.8449777609       -3.1695796699        0.8061246902
 H          2.6762116407       -2.3363261502       -0.2039663098
 H          4.2667688910       -1.1641176798        1.8160384798
 H          4.9704239107       -0.5878232099        0.2989142196
 O          2.2102216309        0.0108493101        1.7749584100
 C          1.1108499509        0.8463197201        1.8806630300
 O          0.5449556311        0.8080165502        2.9915723601
 O          1.0631178802        2.1005282496       -1.5153626702
 C         -0.4785366394        2.5004925998        0.9354996100
 C         -1.4441133595        2.2197894396       -0.1894768598
 C         -1.9089962197        3.1729494895       -1.0844182698
 C         -2.7888687899        2.8104725093       -2.0898983096
 C         -3.2348716198        1.5071559492       -2.2116423994
 C         -2.7758026096        0.5454612294       -1.3181922993
 C         -1.8850792895        0.9093171096       -0.3238179095
 H         -1.5198528093        0.1624025697        0.3656094405
 N         -3.1846781396       -0.7940342207       -1.4110536290
 S         -3.4740796993       -1.6655947005       -0.0121016989
 O         -4.3292829893       -2.7533902106       -0.4382443986
 O         -3.9979779692       -0.8223142903        1.0369848111
 C         -1.8946981792       -2.3402358503        0.4566149210
 C         -1.2392823493       -3.1584925004       -0.4421683990
 C         -0.0319070392       -3.7270117303       -0.0705319791
 C          0.4972550410       -3.4687258201        1.1854957208
 C         -0.1681593789       -2.6384699100        2.0733638607
 C         -1.3787494790       -2.0715204701        1.7087221309
 H         -1.9214930689       -1.4174892700        2.3739428908
 H          0.2502448012       -2.4169957398        3.0424189806
 H          1.4332579911       -3.9173635000        1.4779426107
 H          0.4931188607       -4.3710446504       -0.7578866291
 H         -1.6867310194       -3.3409222506       -1.4050824089
 H         -3.8731162897       -0.9832023308       -2.1248960589
 H         -3.9246267599        1.2309352691       -2.9947972292
 H         -3.1366179300        3.5568455791       -2.7882050697
 H         -1.5647773298        4.1915267595       -1.0117074400
 H         -0.9558086592        2.1533605899        1.8677968502
 C         -0.1798684294        3.9783765199        1.1332455598
 C          1.1043421106        4.4252725501        1.7646512495
 C          0.8374795804        4.7186996798        0.3203888895
 H          0.6199057703        5.7389951398        0.0394811994
 H          1.3784774803        4.1648120497       -0.4293276405
 H          1.0722394407        5.2392870602        2.4733052494
 H          1.8318528607        3.6637265301        2.0065010895
 H         -1.0701610994        4.5315526499        1.4178604098
