  62
        -98.94162346
 C          2.1195055739        0.8272032302        0.2827664137
 C          2.9707358623        0.1972970836        1.2259311884
 C          3.7502880074       -0.9474556608        0.7370927820
 C          3.5653809640       -1.3749059828       -0.5248834794
 C          4.3293989351       -2.4923131357       -1.1726759440
 C          5.5831225002       -1.9657708734       -1.8855096632
 C          6.4380456582       -1.0345462754       -1.0257218658
 H          7.3084786229       -0.7507344578       -1.6210357562
 H          5.8757185116       -0.1199036830       -0.8239132674
 C          6.9041520899       -1.6464065608        0.3028251548
 H          7.9619625843       -1.4145107248        0.4428614067
 H          6.8132192208       -2.7324368855        0.2622817760
 C          6.1666079394       -1.1223143586        1.5364304723
 H          6.7128855204       -1.4510447300        2.4244190306
 H          6.1769335914       -0.0293533853        1.5325574263
 C          4.7143238519       -1.5902195911        1.6942420220
 H          4.6672467889       -2.6783978011        1.6158063798
 H          4.3786341154       -1.3028496559        2.6951109071
 H          5.2690901197       -1.4174758587       -2.7767755282
 H          6.1817702899       -2.8203509239       -2.2058871966
 H          4.6083971433       -3.2222231819       -0.4150004377
 H          3.6790019614       -2.9734691800       -1.9053306044
 O          2.6792762731       -0.7995696815       -1.3758463504
 C          1.9391382888        0.3178476628       -1.0047053531
 O          1.1786592430        0.7343752012       -1.8970117156
 H         -0.2659633482        0.0605818269        1.4991732161
 C         -0.8012700049        0.7616725655        0.8691658600
 C         -0.1274377866        1.8723901357        0.3750903525
 C         -0.8185103548        2.7551404381       -0.4430760481
 C         -2.1460999029        2.5223893027       -0.7581070183
 C         -2.8122649853        1.4165236683       -0.2636884465
 C         -2.1287834322        0.5235454505        0.5514798089
 N         -2.7982325312       -0.6005630879        1.0686470068
 S         -3.6553391155       -1.5756986566        0.0023508437
 O         -3.7063967469       -2.8724181344        0.6438114824
 O         -3.0962594734       -1.5391401326       -1.3289509271
 C         -5.2888736254       -0.8664176654        0.0042170760
 C         -5.8724192823       -0.4793566969       -1.1861403694
 C         -7.1468238719        0.0659490151       -1.1614078535
 C         -7.8113330772        0.2126671207        0.0465350659
 C         -7.2124464674       -0.1843148834        1.2329704100
 C         -5.9394066335       -0.7312489883        1.2151381032
 H         -5.4402173754       -1.0558067292        2.1127641404
 H         -7.7324967374       -0.0689874474        2.1702381351
 H         -8.8020576237        0.6386617208        0.0632298950
 H         -7.6138564758        0.3740145564       -2.0830620653
 H         -5.3141833023       -0.6070959351       -2.1001427647
 H         -2.2228306497       -1.1677604405        1.6747873089
 H         -3.8439645465        1.2301037990       -0.5132207764
 H         -2.6694243048        3.2120291879       -1.4027476946
 H         -0.3107306935        3.6102308871       -0.8575607503
 C          1.3239927834        2.0331650188        0.7510498086
 H          1.3923066760        1.9896525944        1.8514093258
 C          1.9145608278        3.3726161866        0.3377890170
 C          3.3873949821        3.5250804156        0.1058464322
 C          2.4329451471        3.6341981026       -1.0433209563
 H          2.2649126512        4.6095844172       -1.4762167758
 H          2.3862785361        2.8267494478       -1.7568972247
 H          3.8739828881        4.4209486683        0.4611914169
 H          3.9993343636        2.6375491339        0.1792845574
 H          1.4205699284        4.2010148980        0.8361582009
 O          3.0694973634        0.5733621621        2.4250065128
