  62
        -98.94025893
 C          1.1466744583        1.1601359951       -0.2356912872
 C          2.0306846449        0.7803016389        0.8080644061
 C          2.8602487310       -0.4133798681        0.5808444271
 C          2.7410436891       -1.0826302576       -0.5780193790
 C          3.4639978831       -2.3285297831       -1.0262343054
 C          4.9640285808       -2.4257363580       -0.7172260448
 C          5.7215337939       -1.0902936644       -0.7509253390
 H          6.5976072788       -1.1948319751       -1.3937558108
 H          5.0912490158       -0.3121162464       -1.1848073303
 C          6.2041885071       -0.6435414413        0.6312050220
 H          6.6126024446       -1.5097742442        1.1564695936
 H          7.0185734605        0.0738145873        0.5038831836
 C          5.1473068242        0.0232908885        1.5110659599
 H          5.5846301117        0.1814713141        2.4998363698
 H          4.9001714270        1.0097429145        1.1096564865
 C          3.8321408679       -0.7562558374        1.6730497139
 H          4.0156660143       -1.8265055666        1.7298081546
 H          3.3641626166       -0.4313858609        2.6061112599
 H          5.3940369724       -3.1066797225       -1.4538088778
 H          5.1069556866       -2.8898467657        0.2575672464
 H          2.9569539925       -3.1968156856       -0.5952499328
 H          3.3115260905       -2.3714691520       -2.1074264199
 O          1.8625082417       -0.6992877517       -1.5437597233
 C          1.0473718249        0.4114532331       -1.4070142284
 O          0.3055100359        0.5990868612       -2.3934375356
 H         -1.5724267780        1.0897130831       -1.4050515713
 C         -1.9256118726        1.3713640551       -0.4242531548
 C         -1.0814471310        2.0670907793        0.4295426998
 C         -1.5471092339        2.3992687031        1.6961457383
 C         -2.8243900312        2.0443709367        2.0957963194
 C         -3.6585311478        1.3400182895        1.2454929187
 C         -3.1968706123        0.9982038050       -0.0181648039
 N         -4.0150778678        0.2157468498       -0.8699545165
 S         -4.1961908388       -1.3620647480       -0.3286450227
 O         -4.6411141560       -2.1284209210       -1.4699780218
 O         -5.0725775621       -1.3575749639        0.8150098566
 C         -2.5560558491       -1.8625896060        0.1659370607
 C         -1.7014273614       -2.3728326261       -0.7898290994
 C         -0.4046700503       -2.6969778796       -0.4262361400
 C          0.0182089589       -2.4864488338        0.8769772788
 C         -0.8495861362       -1.9648743258        1.8234829075
 C         -2.1512481900       -1.6517790583        1.4688930422
 H         -2.8576022299       -1.2535828382        2.1785584302
 H         -0.5120426226       -1.7967547333        2.8334654885
 H          1.0320123245       -2.7241155916        1.1590183478
 H          0.2729767249       -3.0960962298       -1.1641723394
 H         -2.0633297114       -2.5168261855       -1.7955404388
 H         -3.6618769539        0.1908474123       -1.8175119720
 H         -4.6455066413        1.0279516932        1.5464830926
 H         -3.1716686796        2.3119944863        3.0820509583
 H         -0.8931898721        2.9247994434        2.3764608397
 C          0.3216514019        2.4159346003       -0.0029392921
 H          0.8115354488        2.9284187627        0.8356690440
 C          0.3072779545        3.3531628612       -1.1949253188
 C         -0.0202186726        4.7990032019       -0.9783018583
 C          1.3794913096        4.3910112430       -1.3256926569
 H          1.7570142083        4.6200247819       -2.3110120371
 H          2.1305922288        4.4351337490       -0.5504238743
 H         -0.6074726113        5.3112595824       -1.7248200918
 H         -0.2173731143        5.1212122278        0.0328772295
 H         -0.0451982524        2.8882781605       -2.1064353184
 O          2.1242216422        1.4175569810        1.8896091851
