  62
        -98.94626349
 C          1.5822974712        1.4489959652       -0.0446929404
 C          2.5283142569        0.9262879451        0.8673886333
 C          3.2300864591       -0.2903432116        0.4374600586
 C          2.9352575129       -0.8318074891       -0.7590675414
 C          3.5743192846       -2.0710324622       -1.3152373733
 C          2.7833532653       -3.3332005762       -0.9472080910
 C          2.4075767150       -3.4170173279        0.5316594270
 H          1.7132438730       -2.6074721010        0.7692251127
 H          1.8689564879       -4.3552878147        0.6802324720
 C          3.6039717532       -3.3621559228        1.4923053975
 H          3.4735964344       -4.1292335555        2.2587062415
 H          4.5225358246       -3.5968808786        0.9531586377
 C          3.7756521196       -2.0293947915        2.2234763615
 H          4.5040901720       -2.1742630938        3.0259110455
 H          2.8299623334       -1.7426943274        2.6910645501
 C          4.2670970976       -0.8553300773        1.3670503145
 H          4.5379795769       -0.0403209946        2.0448793381
 H          5.1614059330       -1.1522961658        0.8152821771
 H          3.3779062600       -4.2060089244       -1.2228295471
 H          1.8639432414       -3.3441484437       -1.5338042343
 H          4.5923811987       -2.1441800018       -0.9369826990
 H          3.6082731399       -1.9786793390       -2.4020021588
 O          1.9938800297       -0.3213812261       -1.5925233945
 C          1.2938685614        0.8304137132       -1.2619310045
 O          0.4657473409        1.1933361945       -2.1154199344
 O          2.7771955633        1.4548169728        1.9857162808
 C          0.8472487851        2.7288174003        0.3094951235
 C         -0.6424320483        2.4940464387        0.3191127286
 C         -1.5534391508        3.3322667272       -0.3091117796
 C         -2.9090932258        3.0514461784       -0.2708715691
 C         -3.3862049575        1.9394033385        0.3973489012
 C         -2.4831700787        1.0964324931        1.0341684969
 C         -1.1272765168        1.3800311373        0.9948723975
 H         -0.4260793517        0.7215145389        1.4933491910
 N         -2.9588913470       -0.0410553291        1.7212950725
 S         -3.7539258342       -1.2121092654        0.8262751471
 O         -4.9430961211       -0.6344257438        0.2550448147
 O         -3.9512870908       -2.3180336081        1.7352583048
 C         -2.6179648176       -1.6849643023       -0.4642317939
 C         -2.4496244608       -0.8525538651       -1.5529821993
 C         -1.5308780055       -1.2044398159       -2.5286120350
 C         -0.8071708683       -2.3798183610       -2.4026996865
 C         -0.9923370357       -3.2084879652       -1.3063907645
 C         -1.8989967193       -2.8548067090       -0.3208657632
 H         -2.0725069022       -3.4678446865        0.5491084428
 H         -0.4344705316       -4.1269727892       -1.2136581112
 H         -0.0936823464       -2.6459187517       -3.1671960753
 H         -1.3696837004       -0.5500398055       -3.3694269833
 H         -3.0309694485        0.0519284727       -1.6261318470
 H         -2.2498946322       -0.4869523997        2.2866352232
 H         -4.4365154455        1.6985651815        0.4212883859
 H         -3.6047645644        3.7096091520       -0.7690488755
 H         -1.2035936460        4.2042682791       -0.8363615154
 H          1.1613101582        2.9730678970        1.3355145627
 C          1.2796274251        3.8519199279       -0.6100008061
 C          1.2542767509        5.2725094057       -0.1329754697
 C          2.5634368620        4.5684413929       -0.3212736332
 H          3.1919207729        4.8563160241       -1.1506439076
 H          3.1140144718        4.2643989029        0.5571258751
 H          0.9859552834        6.0481436884       -0.8343524540
 H          0.9184326033        5.4555063503        0.8765430557
 H          1.0408233040        3.6542409005       -1.6489681022
