  62
        -98.93369136
 C         -2.3036474013       -1.0913958308       -0.2404967562
 C         -3.6193635480       -1.2101499399        0.2674388594
 C         -4.6051505544       -0.2516965020       -0.2529868448
 C         -4.2110249750        0.6680177113       -1.1527317245
 C         -5.0742351726        1.7624665132       -1.7133828788
 C         -5.2294895827        2.8948824573       -0.6781460819
 C         -6.6551048129        3.0830166865       -0.1587440881
 H         -6.6026189474        3.7496142340        0.7047272750
 H         -7.2488140023        3.5841559792       -0.9261159786
 C         -7.3933225450        1.8025836574        0.2433446837
 H         -8.2632261945        2.1077977935        0.8287274585
 H         -7.7775284592        1.3050062107       -0.6482813015
 C         -6.5816388825        0.7886807976        1.0598095392
 H         -5.7663267587        1.2840453859        1.5876869063
 H         -7.2386120364        0.3612703597        1.8200626754
 C         -6.0187612365       -0.3886340988        0.2417645263
 H         -6.6818736755       -0.5962397402       -0.6025246562
 H         -6.0063642249       -1.2794652739        0.8767134131
 H         -4.5590622084        2.6880372889        0.1589350733
 H         -4.8983639387        3.8372640655       -1.1172287640
 H         -4.5831246296        2.1350233794       -2.6124860175
 H         -6.0464699798        1.3592115968       -1.9880146986
 O         -2.9347783079        0.7561138192       -1.6103224580
 C         -1.9489989993       -0.1156768866       -1.1711885958
 O         -0.8294953346        0.0770929555       -1.6830099109
 O         -3.9537161842       -2.0797150531        1.1165330513
 C         -1.2381595307       -2.0494032484        0.2640537151
 C         -0.1670621400       -1.2580509759        0.9726768338
 C         -0.5145544201       -0.5536901871        2.1231927897
 C          0.4176860202        0.2199806347        2.7860512372
 C          1.7185063677        0.3079767741        2.3197283532
 C          2.0744251016       -0.3869079576        1.1729589857
 C          1.1345021631       -1.1682867683        0.5095488807
 H          1.4229915588       -1.6936851305       -0.3870756225
 N          3.3987656447       -0.3314448368        0.6974140931
 S          4.1902353567        1.1602934621        0.7024109257
 O          4.6028510968        1.4536878288        2.0525981236
 O          3.3795038827        2.1695207595        0.0577152917
 C          5.6175318018        0.7708718131       -0.2907587519
 C          6.7232374822        0.2117817571        0.3212055694
 C          7.8215840390       -0.1207909325       -0.4555630233
 C          7.7956188163        0.1087887996       -1.8231411961
 C          6.6790045654        0.6717617201       -2.4229128223
 C          5.5763998940        1.0054830170       -1.6520712885
 H          4.6901714506        1.4520656742       -2.0749025940
 H          6.6621637877        0.8514456022       -3.4858999386
 H          8.6516619994       -0.1500173120       -2.4260518057
 H          8.6925192619       -0.5565855342        0.0067163304
 H          6.7002435552        0.0601198617        1.3875699592
 H          3.4834203200       -0.7646321524       -0.2127149133
 H          2.4526525613        0.9169670488        2.8215624598
 H          0.1326880054        0.7638011182        3.6745482917
 H         -1.5325019453       -0.6152233861        2.4839353469
 H         -1.7437673330       -2.6812023004        1.0079837690
 C         -0.7259824176       -2.9297619207       -0.8554096581
 C         -0.0472376280       -4.2265314808       -0.5327025492
 C         -1.4196031772       -4.2281589050       -1.1341909857
 H         -1.5337284173       -4.5400360486       -2.1615413398
 H         -2.2567237714       -4.4896966322       -0.5038279138
 H          0.7817010021       -4.5429691670       -1.1474207624
 H          0.0503656801       -4.4906004623        0.5092962132
 H         -0.3721737247       -2.3629514885       -1.7091256296
