  62
        -98.93783074
 C         -1.3483192945       -1.4950839270       -0.5725324354
 C         -2.5710633766       -1.5017486727        0.1409705871
 C         -3.5862249143       -0.4979130808       -0.2286719163
 C         -3.3008683564        0.3700106521       -1.2168328890
 C         -4.1437879723        1.5027815970       -1.7405203331
 C         -4.1462153362        2.7177172421       -0.8002676521
 C         -4.3454398732        2.3847415734        0.6758742252
 H         -4.2381070628        3.3143488083        1.2415232605
 H         -3.5440060802        1.7184615961        1.0017742551
 C         -5.6991036793        1.7729012651        1.0304228541
 H         -6.4923538567        2.4560063130        0.7187661740
 H         -5.7399827865        1.6913084665        2.1195923357
 C         -5.9861312148        0.3894248475        0.4415812306
 H         -6.2867863406        0.4591098311       -0.6003898940
 H         -6.8414231994       -0.0232168815        0.9845066353
 C         -4.8476626170       -0.6142409136        0.5928235471
 H         -5.2378907751       -1.6188769041        0.3895687881
 H         -4.5260204539       -0.6384132342        1.6403836660
 H         -4.9248443927        3.4081596141       -1.1298708301
 H         -3.1812578991        3.2224908594       -0.8975369808
 H         -5.1563515957        1.1607421180       -1.9334548909
 H         -3.7052161478        1.8042094861       -2.6945201313
 O         -2.1134641831        0.3400847130       -1.8821917096
 C         -1.1041102104       -0.5600101628       -1.5788942821
 O         -0.0864692364       -0.4214882807       -2.2819688873
 O         -2.8139437016       -2.3276571589        1.0640920273
 C         -0.3130919864       -2.5198373288       -0.1468940984
 C          0.5338825852       -1.9940282290        0.9866534328
 C          0.9161034712       -2.8227457431        2.0356647655
 C          1.6945544064       -2.3320010864        3.0689805439
 C          2.0967927738       -1.0090763468        3.0815029437
 C          1.7039711002       -0.1653879302        2.0464102969
 C          0.9394456698       -0.6674594085        1.0030870677
 H          0.6312053767       -0.0053716179        0.2111345712
 N          2.0483136457        1.1880270369        2.0743881351
 S          2.0826636916        2.1965832300        0.7480598116
 O          2.6327202133        3.4263634531        1.2796967208
 O          0.7749568884        2.2954986184        0.1515409045
 C          3.2732754411        1.4767062883       -0.3668572701
 C          4.6052773179        1.6010626385       -0.0153718393
 C          5.5741489413        1.0535340700       -0.8382031578
 C          5.1971207065        0.3948604861       -1.9995897123
 C          3.8589097060        0.2829544969       -2.3389029868
 C          2.8806017382        0.8237378610       -1.5163226839
 H          1.8339794459        0.7310147430       -1.7630200210
 H          3.5580531459       -0.2256468241       -3.2406976142
 H          5.9493561984       -0.0311381312       -2.6445611825
 H          6.6159136118        1.1430697999       -0.5757812421
 H          4.8555798843        2.1412093643        0.8831352033
 H          2.6905263531        1.4676820923        2.7990659174
 H          2.6919687984       -0.6220416843        3.8940744542
 H          1.9859788659       -2.9845307137        3.8777979889
 H          0.5807903539       -3.8492467303        2.0497812119
 H         -0.8981453700       -3.3645760593        0.2522909475
 C          0.5242484305       -3.0499572067       -1.3021285438
 C          1.9576787801       -2.6761459477       -1.5119250730
 C          1.6069727467       -4.0600745782       -1.0605110185
 H          1.7128183009       -4.8750710290       -1.7602625466
 H          1.8302391776       -4.3219990730       -0.0380578380
 H          2.2905229036       -2.5258505121       -2.5267259894
 H          2.4155029288       -2.0039123490       -0.8025031771
 H         -0.0718913528       -3.1831866594       -2.1990910288
