  62
        -98.94661199
 C         -1.2873903560       -1.1259009518       -0.1434415008
 C         -2.2750855624       -0.9414893519        0.8593964157
 C         -3.0513679983        0.2999035766        0.7838002196
 C         -2.7831207186        1.1933285715       -0.1852726673
 C         -3.4733417610        2.5156070177       -0.3859267794
 C         -4.7904609237        2.4201016542       -1.1686005171
 C         -5.9604014693        1.8004194151       -0.4033741223
 H         -6.0755822533        2.3063490147        0.5557333648
 H         -6.8634034462        1.9971635429       -0.9848038183
 C         -5.8394481189        0.2867515778       -0.1781048807
 H         -5.0922914914       -0.1249812317       -0.8605012275
 H         -6.7903840949       -0.1942877540       -0.4182804116
 C         -5.4774853459       -0.1143294643        1.2520057586
 H         -6.2846916075        0.1742539560        1.9289967758
 H         -5.3811346064       -1.2024429755        1.2885737712
 C         -4.1666709109        0.4955198932        1.7658458441
 H         -4.3047041597        1.5548950874        1.9805943190
 H         -3.8900090777       -0.0168298620        2.6904030516
 H         -4.6129841345        1.8516018683       -2.0843667169
 H         -5.0718656236        3.4354241512       -1.4575492076
 H         -3.6599616684        2.9838965879        0.5810625260
 H         -2.7853579393        3.1451119667       -0.9539712343
 O         -1.8107140029        0.9939606380       -1.1108738184
 C         -1.0460713004       -0.1628895597       -1.1237661298
 O         -0.2119229664       -0.1944824685       -2.0495736793
 H          1.6720610124       -1.3882905048       -1.4189375183
 C          1.8814875948       -1.5501121058       -0.3731977947
 C          0.9000678734       -2.0855877670        0.4484400391
 C          1.1812401009       -2.2455011250        1.8013011315
 C          2.4131424362       -1.8821400544        2.3158628287
 C          3.3846870299       -1.3357246953        1.4954394737
 C          3.1061290445       -1.1597274025        0.1469166345
 N          4.0671097871       -0.5429513946       -0.6876345423
 S          4.4045804341        1.0499729236       -0.2844238079
 O          5.0020480563        1.6351651374       -1.4631457265
 O          5.2133089286        1.0639579032        0.9087028646
 C          2.8174822341        1.7923989362        0.0509093151
 C          2.0754887311        2.2756787450       -1.0074765465
 C          0.8187695805        2.8024639067       -0.7604736090
 C          0.3215353020        2.8196532338        0.5329855802
 C          1.0754149239        2.3227662667        1.5845722920
 C          2.3379623319        1.8058965607        1.3452969928
 H          2.9582737535        1.4203355135        2.1374982133
 H          0.6805641137        2.3328937476        2.5879652041
 H         -0.6623080892        3.2194712689        0.7232509260
 H          0.2259792198        3.1785848869       -1.5787128900
 H          2.4918788635        2.2412401309       -2.0015254757
 H          3.8052079271       -0.5807235009       -1.6636507595
 H          4.3417008810       -1.0218814232        1.8799585743
 H          2.6173889454       -2.0186048577        3.3669538379
 H          0.4151843499       -2.6431431731        2.4513963058
 C         -0.4729927985       -2.4092236198       -0.0857683295
 H         -0.9829398567       -3.0397213158        0.6545563659
 C         -0.4362719009       -3.1501884328       -1.4064976135
 C          0.0015432205       -4.5832655677       -1.4219879482
 C         -1.4357175791       -4.2358091442       -1.6651409726
 H         -1.8319032377       -4.3436216369       -2.6638304148
 H         -2.1521623989       -4.4533721564       -0.8865117058
 H          0.2608744288       -5.0347878927       -0.4763226739
 H          0.5949816335       -4.9328141335       -2.2528694708
 H         -0.1580421495       -2.5289197212       -2.2478901140
 O         -2.4976231657       -1.7786875188        1.7733325417
