  62
        -98.93194578
 C         -2.7880019371       -0.1016062787        0.0266336923
 C         -2.2758817306        0.7686559175       -0.9633870047
 C         -2.0214182884        2.1637430730       -0.5496354511
 C         -2.2044158093        2.5226135015        0.7333470259
 C         -2.0242025861        3.8498644911        1.4399468933
 C         -1.3218332493        5.0139131676        0.7473006297
 C          0.1777028437        4.8146891327        0.5271983771
 H          0.5477166340        5.6491122602       -0.0728828414
 H          0.6775122900        4.8545215804        1.4983645408
 C          0.5898413969        3.5049335161       -0.1410659909
 H          0.3212711941        2.6558910151        0.4928876719
 H          1.6815431413        3.5064021543       -0.2147603852
 C          0.0286771163        3.2807685063       -1.5436125728
 H          0.5029497550        2.3819459086       -1.9481609735
 H          0.2979619145        4.1211684589       -2.1869959422
 C         -1.4924081046        3.0730147689       -1.6228418292
 H         -2.0208712141        4.0229537592       -1.6133360570
 H         -1.7140289322        2.5820558181       -2.5752867683
 H         -1.4443633040        5.8831219951        1.3993039809
 H         -1.8201551210        5.2505558757       -0.1882396265
 H         -1.4990889031        3.6180902810        2.3725117189
 H         -3.0318393956        4.1712824829        1.7263214938
 O         -2.6710223705        1.6377257174        1.6639764044
 C         -2.9598135899        0.3266579170        1.3444484537
 O         -3.3691460175       -0.3569717669        2.3051254862
 O         -2.0309620585        0.4246354413       -2.1496783868
 C         -3.0609002769       -1.5805234406       -0.2085895729
 C         -1.8086078049       -2.3473990126        0.1341712236
 C         -1.8184690456       -3.4233357138        1.0123401088
 C         -0.6351111312       -4.0366249363        1.3899396889
 C          0.5811818883       -3.5784314721        0.9148082701
 C          0.5961037560       -2.5122625751        0.0271291546
 C         -0.5888416054       -1.9184989598       -0.3705970739
 H         -0.5631362274       -1.0850169429       -1.0579610930
 N          1.8423747554       -1.9763710098       -0.4055584431
 S          2.4226649923       -0.9215737840        0.7941897497
 O          2.7583049822       -1.7155319933        1.9486782702
 O          1.4796134203        0.1548631326        1.0108131984
 C          3.9054734218       -0.2979493060        0.0269059363
 C          3.8345513817        0.8666980545       -0.7127629713
 C          4.9785702089        1.3331294721       -1.3408042007
 C          6.1661165541        0.6267785271       -1.2220780390
 C          6.2206241540       -0.5423662743       -0.4778987087
 C          5.0802592996       -1.0136694726        0.1530056550
 H          5.0742377503       -1.9123572270        0.7469800688
 H          7.1463707831       -1.0872388178       -0.3875751942
 H          7.0549844874        0.9921478551       -1.7116135564
 H          4.9382132779        2.2425099526       -1.9186120302
 H          2.8908904087        1.3869252033       -0.7687684458
 H          1.7060277037       -1.4190091453       -1.2418098639
 H          1.5132346882       -4.0118742278        1.2379967288
 H         -0.6592787182       -4.8657034611        2.0807645123
 H         -2.7584724301       -3.7585073295        1.4261648910
 H         -3.8311109707       -1.8582500111        0.5284999201
 C         -3.6118429659       -1.8946508348       -1.5909457578
 C         -2.8400775113       -2.6443379255       -2.6311308687
 C         -3.9882441769       -3.3057928955       -1.9341223214
 H         -4.9010112193       -3.4783388420       -2.4836017012
 H         -3.7564523864       -4.0703425775       -1.2078696514
 H         -2.9592381967       -2.3367569127       -3.6586043865
 H         -1.8409517095       -2.9712614189       -2.3884372029
 H         -4.2708766176       -1.1128121075       -1.9523874800
