  62
        -98.94466366
 C          1.9863499974        0.7681220060        0.5671517449
 C          1.9787933976        0.0743064831       -0.6667136345
 C          2.0881064976       -1.3857179359       -0.5762251784
 C          2.1211047839       -1.9803802892        0.6296554090
 C          2.1870980281       -3.4621431587        0.8849759889
 C          3.6059343210       -4.0456645440        0.8291521483
 C          4.2142808580       -4.1467372724       -0.5701817535
 H          5.1092295072       -4.7662250402       -0.4855521283
 H          3.5184226889       -4.6659625957       -1.2297029289
 C          4.6043006077       -2.7977185844       -1.1899991770
 H          4.6521342675       -2.0375844209       -0.4069652085
 H          5.6025903261       -2.8724545022       -1.6267583075
 C          3.6628696406       -2.3111945012       -2.2918502536
 H          4.0109574525       -1.3333131703       -2.6336112261
 H          3.7030882791       -2.9991423881       -3.1391308459
 C          2.2001770006       -2.1640915332       -1.8518414166
 H          1.6580938205       -1.6098387408       -2.6220601277
 H          1.7369296495       -3.1443496976       -1.7399361303
 H          4.2553981360       -3.4415564075        1.4667346365
 H          3.5607673694       -5.0500310425        1.2564210424
 H          1.7864028304       -3.6205334804        1.8888035818
 H          1.5462901343       -3.9818634204        0.1717988229
 O          2.0798314718       -1.2795128845        1.7956149243
 C          2.0200254205        0.1046824051        1.7918437016
 O          2.0049635454        0.6222560030        2.9292317984
 O          1.8908296157        0.6442095811       -1.7860680573
 C          1.8535870305        2.2804463265        0.5808502352
 C          0.5654462863        2.6665416682       -0.1062130548
 C          0.4642071478        3.6960888899       -1.0323739841
 C         -0.7456332294        3.9617692951       -1.6509263052
 C         -1.8685538510        3.2063167885       -1.3697660680
 C         -1.7818779530        2.1878381119       -0.4263003531
 C         -0.5771139249        1.9416453633        0.2087555678
 H         -0.5200752375        1.1461473717        0.9389535838
 N         -2.9079971703        1.4146474564       -0.0909960785
 S         -2.6683004107       -0.2039433527        0.3288779971
 O         -2.3003589977       -0.2727084743        1.7222276456
 O         -1.7729548420       -0.8457629765       -0.6071462582
 C         -4.3289660642       -0.8226204830        0.1241750471
 C         -4.6625626170       -1.5177555430       -1.0225719884
 C         -5.9665216844       -1.9606088402       -1.1825455000
 C         -6.9098846610       -1.6988420725       -0.2004780952
 C         -6.5598429441       -1.0003149018        0.9457536465
 C         -5.2577865575       -0.5564532656        1.1127710283
 H         -4.9352690243       -0.0187067947        1.9890673136
 H         -7.2950317049       -0.8007206584        1.7084925293
 H         -7.9237811158       -2.0437084066       -0.3277939847
 H         -6.2402461576       -2.5065692041       -2.0709336608
 H         -3.8929107257       -1.7020038455       -1.7550206206
 H         -3.6613050690        1.5133273798       -0.7585537171
 H         -2.8041372958        3.3996493838       -1.8720267098
 H         -0.8097015661        4.7583766640       -2.3766035732
 H          1.3349517147        4.2801848921       -1.2814575821
 H          1.7796872492        2.5714305997        1.6395619633
 C          3.0819147023        2.9282795081       -0.0232283345
 C          3.5257650641        4.2837310994        0.4360503845
 C          4.3124416456        3.0676230211        0.8199515241
 H          5.2748887102        2.9057767096        0.3583711702
 H          4.2531789853        2.7177079715        1.8406551294
 H          3.9533766795        4.9596452756       -0.2889573274
 H          2.9392935184        4.7682457322        1.2019944281
 H          3.2163472347        2.6674713258       -1.0666720353
