  62
        -98.93445253
 C          2.2991567121        0.5572243974        0.2975825724
 C          3.4962249692        0.5537208076        1.0562597916
 C          4.5032108192       -0.4665063324        0.7165875426
 C          4.2352435852       -1.3558126857       -0.2572193331
 C          5.0386642564       -2.5230052798       -0.7919149874
 C          6.5184548046       -2.6748715335       -0.4496655000
 C          7.4282473457       -1.6075841131       -1.0574547964
 H          7.4671083649       -1.7595349916       -2.1391109581
 H          8.4368608373       -1.7541486006       -0.6649815811
 C          7.0049335271       -0.1615600278       -0.8114634760
 H          6.0375586691        0.0224837558       -1.2835673028
 H          7.7320734383        0.4885130237       -1.3057636813
 C          6.9298683014        0.2571550691        0.6555651652
 H          6.7757420082        1.3394632287        0.6817817471
 H          7.8808456226        0.0443531343        1.1476844360
 C          5.7987801974       -0.3915467185        1.4721087358
 H          5.6079413593        0.2391832809        2.3453524527
 H          6.0879946842       -1.3741075830        1.8371203929
 H          6.8325075564       -3.6422967687       -0.8509598789
 H          6.6531248877       -2.7230664184        0.6268858306
 H          4.9247448722       -2.4888896133       -1.8801535894
 H          4.5113916803       -3.4228711370       -0.4563914720
 O          3.0480512901       -1.3441256167       -0.9289951753
 C          2.0577156574       -0.4019858461       -0.6854890897
 O          1.0507980151       -0.5421548599       -1.4027371662
 O          3.7153660810        1.3688110870        1.9919672127
 C          1.2599201414        1.6108322352        0.6375480143
 C         -0.0951425131        0.9735054572        0.8061578452
 C         -0.3449592389        0.2094172938        1.9425343337
 C         -1.5695586103       -0.4033089815        2.1270529963
 C         -2.5703131652       -0.2720075455        1.1801816238
 C         -2.3311216184        0.4856832772        0.0423608455
 C         -1.1031875619        1.1106475991       -0.1342878305
 H         -0.9236071816        1.6816471276       -1.0320892458
 N         -3.3325777786        0.6019260796       -0.9344670730
 S         -4.8927238922        0.9865236612       -0.4657541352
 O         -5.5046527117        1.5797691214       -1.6350417527
 O         -4.9026683198        1.7870445121        0.7372076226
 C         -5.6535027640       -0.5925259184       -0.1532849840
 C         -5.5959374786       -1.5515637478       -1.1453772057
 C         -6.1954633230       -2.7808024631       -0.9227339983
 C         -6.8407462907       -3.0281535971        0.2799155744
 C         -6.8919056295       -2.0539458056        1.2649645868
 C         -6.2935513049       -0.8223126054        1.0487116021
 H         -6.3027740301       -0.0370607576        1.7877919236
 H         -7.3937279787       -2.2482574609        2.1992723451
 H         -7.3061072813       -3.9862107980        0.4500016900
 H         -6.1565510158       -3.5412625738       -1.6860144495
 H         -5.0854163427       -1.3208646565       -2.0656102774
 H         -3.0501556501        1.1179523333       -1.7543641374
 H         -3.5262797496       -0.7515399128        1.3140825923
 H         -1.7476481523       -0.9924020277        3.0139524218
 H          0.4392959722        0.0980846432        2.6789488289
 H          1.5769095146        1.9951101380        1.6211216683
 C          1.2443088848        2.8059665697       -0.3040450121
 C          2.5160420520        3.3173407358       -0.9099024472
 C          1.4727790175        2.6865433496       -1.7800950796
 H          0.9015457066        3.3262701846       -2.4377634888
 H          1.6604728665        1.7041387576       -2.1839920825
 H          2.6651721022        4.3847277613       -0.9724598685
 H          3.4198437431        2.7599672306       -0.7114740672
 H          0.5266842190        3.5566084289        0.0153546357
