  62
        -98.94465863
 C         -1.8181604100       -0.1050414185        0.1842414699
 C         -2.8691084702       -0.8007103283        0.8288205799
 C         -4.1925610001       -0.1671651781        0.7668375096
 C         -4.3257972499        1.0160282418        0.1398677694
 C         -5.6244833897        1.7449686920       -0.0459522208
 C         -6.3005742697        1.3466089718       -1.3654099408
 C         -6.3913282198       -0.1639511582       -1.5823540306
 H         -5.3831291999       -0.5682868983       -1.6984841004
 H         -6.9126647398       -0.3252394483       -2.5284649806
 C         -7.1163705401       -0.9240972279       -0.4629819305
 H         -7.8056623001       -1.6398834579       -0.9158698305
 H         -7.7135851700       -0.2299290477        0.1293429993
 C         -6.1948986803       -1.7187791579        0.4641353997
 H         -5.5300574903       -2.3483757181       -0.1325102001
 H         -6.8152538704       -2.3821957777        1.0725890397
 C         -5.3364847803       -0.8864097878        1.4248528396
 H         -4.8832121304       -1.5736440578        2.1451843598
 H         -5.9703567702       -0.1849788377        1.9709691595
 H         -5.7285225295        1.7770102716       -2.1907498008
 H         -7.3023359396        1.7797634020       -1.3844527910
 H         -6.2825906799        1.5251528822        0.7924459091
 H         -5.4177161696        2.8163749319       -0.0632383310
 O         -3.2877711997        1.6675796316       -0.4441753606
 C         -2.0106595698        1.1237678214       -0.4468565204
 O         -1.1585761796        1.8208850512       -1.0292922004
 H          1.9203098801        0.4035807908       -0.7941471898
 C          1.6866613201        0.6963204610        0.2155366501
 C          0.5447971500        0.2265069013        0.8438599601
 C          0.2741724499        0.6501753715        2.1438514100
 C          1.1120637899        1.5379212615        2.7878146499
 C          2.2461865101        2.0150379012        2.1534825599
 C          2.5290772101        1.5945042310        0.8600633700
 N          3.6662406103        2.0708894407        0.1970257601
 S          4.4822443903        1.1470072704       -0.9199996597
 O          5.8084969003        1.7272800902       -0.9588411996
 O          3.7789196004        1.1154232403       -2.1777056697
 C          4.5678699600       -0.4992176895       -0.2341070594
 C          4.3501810999       -1.5781345796       -1.0657027492
 C          4.4357340997       -2.8594069295       -0.5447370990
 C          4.7361028095       -3.0386273493        0.7962179310
 C          4.9585570496       -1.9449470192        1.6187788109
 C          4.8781651698       -0.6621598393        1.1016109007
 H          5.0517658799        0.2025821308        1.7206197905
 H          5.1932665594       -2.0875221391        2.6612877409
 H          4.7976323493       -4.0359961993        1.2021901712
 H          4.2641734396       -3.7099394496       -1.1849083089
 H          4.1132074500       -1.3912078297       -2.1006895993
 H          4.2803371803        2.6558964807        0.7426621200
 H          2.8989743501        2.7171898212        2.6492729699
 H          0.8842354799        1.8618471117        3.7920842098
 H         -0.6143556802        0.2794443317        2.6364010399
 C         -0.4280594801       -0.7176107387        0.1850717601
 H         -0.5091654103       -1.6182543186        0.8114521703
 C         -0.0375181700       -1.1356168790       -1.2158223298
 C          0.9298551998       -2.2605531492       -1.4232201995
 C         -0.5230500402       -2.4555642190       -1.7334841796
 H         -0.8274587601       -2.5243772792       -2.7671787796
 H         -1.1139564303       -3.0622832988       -1.0628850796
 H          1.3332573397       -2.7411708391       -0.5450002794
 H          1.6231153199       -2.1919779794       -2.2473416994
 H         -0.0130822898       -0.3042992191       -1.9122908299
 O         -2.7062102804       -1.8961069282        1.4303695501
