  62
        -98.94436525
 C         -1.7250722206       -1.1465966195       -0.4073959595
 C         -3.0700581306       -1.3515349688       -0.0197376294
 C         -3.9842423703       -0.2328129987       -0.2759513302
 C         -3.5176752899        0.8936503608       -0.8454270509
 C         -4.3296255595        2.1158263609       -1.1799058717
 C         -4.5307098992        3.0764762017        0.0003318276
 C         -5.5049368193        2.5936426728        1.0757367379
 H         -6.4438780094        2.2959722328        0.6077826581
 H         -5.7199980291        3.4482484833        1.7204283174
 C         -4.9725791197        1.4442241732        1.9429221387
 H         -5.1770601697        1.6564153639        2.9948451486
 H         -3.8874060897        1.3787702527        1.8349835688
 C         -5.5837539402        0.0786093931        1.6294377196
 H         -6.6507765202        0.0917165137        1.8629210496
 H         -5.1085077804       -0.6664166966        2.2728343001
 C         -5.4076502303       -0.3713248679        0.1733867099
 H         -6.0702094101        0.1975519919       -0.4786448805
 H         -5.6753189507       -1.4288897978        0.1074709906
 H         -4.9110202989        4.0164050016       -0.4063188130
 H         -3.5588135391        3.2801276517        0.4555192475
 H         -5.3007298196        1.8144313509       -1.5738279415
 H         -3.7854044993        2.6449047402       -1.9649728421
 O         -2.2176885198        1.0469435401       -1.2126026210
 C         -1.2864712802        0.0390577800       -0.9986280603
 O         -0.1341168401        0.3145149793       -1.3773183705
 O         -3.4854270410       -2.4153314883        0.5137141813
 C         -0.7105373409       -2.2489866797       -0.1607250888
 C          0.4036386292       -1.7060219495        0.6977863108
 C          0.0827634194       -1.1595472885        1.9381508705
 C          1.0583423996       -0.6016904183        2.7410637701
 C          2.3786651596       -0.5743617290        2.3251990201
 C          2.7093591094       -1.1184462300        1.0925060405
 C          1.7275394792       -1.6881296802        0.2911695508
 H          2.0044219391       -2.1031396509       -0.6650957389
 N          4.0505207994       -1.0916756107        0.6588504904
 S          4.7966409599        0.4048471190        0.5469382694
 O          5.9981669299        0.1685619181       -0.2213316704
 O          4.9852575001        0.9376498298        1.8725903891
 C          3.6633030003        1.4241627387       -0.3754195712
 C          2.7099506205        2.1601777095        0.2976129483
 C          1.7921950608        2.8931108093       -0.4361832922
 C          1.8401008208        2.8745908184       -1.8203971822
 C          2.8049884105        2.1313319076       -2.4811053617
 C          3.7234104703        1.3932728178       -1.7539861012
 H          4.4917107301        0.8044978472       -2.2298183508
 H          2.8363231605        2.1173637269       -3.5589247717
 H          1.1156569810        3.4375684782       -2.3873151726
 H          1.0348921410        3.4675209699        0.0732286374
 H          2.7033326705        2.1501878902        1.3754571083
 H          4.1966549293       -1.5993376513       -0.2026391692
 H          3.1519756097       -0.1293227689        2.9301604398
 H          0.7913501997       -0.1809270276        3.6989773398
 H         -0.9499952006       -1.1708737680        2.2597604205
 H         -1.2463579412       -3.0207353891        0.4104436017
 C         -0.2478635711       -2.8465972607       -1.4722881384
 C          0.3034515284       -4.2399225209       -1.5111876275
 C         -1.0492981615       -3.9522877008       -2.0882682077
 H         -1.1674634715       -3.9672069415       -3.1614013977
 H         -1.9212291616       -4.2929672002       -1.5494685674
 H          1.1136472783       -4.4573060316       -2.1909739073
 H          0.3526781682       -4.7836129703       -0.5799135771
 H          0.1764221191       -2.1069764613       -2.1424302489
