  62
        -98.94686466
 C          1.1518219470        1.1572214650       -0.1742916533
 C          2.0058062633        0.8200059428        0.9098822225
 C          2.8305431750       -0.3824232520        0.7456991591
 C          2.7229645249       -1.0992249533       -0.3874625082
 C          3.5528766980       -2.3038569152       -0.7230667403
 C          4.8260490709       -1.9036452511       -1.4820895101
 C          5.6074176185       -0.7672621243       -0.8224016989
 H          6.5001279853       -0.5926738649       -1.4269411635
 H          5.0101894774        0.1465791965       -0.8616242504
 C          6.0197391765       -1.0400776313        0.6310082263
 H          5.9622423821       -2.1092227664        0.8385577188
 H          7.0620957800       -0.7414601175        0.7610808402
 C          5.2041470076       -0.2757348393        1.6756349586
 H          5.1866990965        0.7867974402        1.4203970390
 H          5.7113751463       -0.3716593324        2.6393745666
 C          3.7579466063       -0.7488881421        1.8698185102
 H          3.7463549669       -1.8264874552        2.0454393778
 H          3.3630310933       -0.2503854612        2.7596234523
 H          5.4661443960       -2.7833154383       -1.5712100570
 H          4.5443370597       -1.5854915244       -2.4884881973
 H          3.8178715498       -2.8269763435        0.1938140815
 H          2.9610880256       -2.9682598100       -1.3543715327
 O          1.8682989247       -0.7714469821       -1.3855818187
 C          1.0642731225        0.3548684283       -1.3120664787
 O          0.3395209169        0.5053445340       -2.3171837835
 H         -1.5473789422        1.0613154548       -1.3974504747
 C         -1.9139105958        1.3824815285       -0.4339309836
 C         -1.0794430743        2.1073254916        0.4050670208
 C         -1.5627029590        2.4898270975        1.6507010907
 C         -2.8474951694        2.1552046846        2.0442256805
 C         -3.6720007228        1.4215793858        1.2092610420
 C         -3.1924301567        1.0294555003       -0.0330227028
 N         -4.0004583032        0.2191042167       -0.8684772892
 S         -4.1730753541       -1.3475514969       -0.2960925992
 O         -4.6829590808       -2.1235124295       -1.4032214909
 O         -4.9924853581       -1.3130304981        0.8885150819
 C         -2.5223986602       -1.8796245485        0.1270278091
 C         -1.7642602367       -2.5239516620       -0.8291297727
 C         -0.4700459441       -2.9043419341       -0.5145445296
 C          0.0470205591       -2.6184996434        0.7391209001
 C         -0.7205107270       -1.9539276153        1.6825692170
 C         -2.0200856579       -1.5834505972        1.3785982086
 H         -2.6506135485       -1.0785653713        2.0919613832
 H         -0.3076219705       -1.7201460099        2.6508763655
 H          1.0562805941       -2.9106430327        0.9827718408
 H          0.1328060174       -3.4126309745       -1.2499315589
 H         -2.2015393194       -2.7281354858       -1.7935374203
 H         -3.6440547630        0.1751212089       -1.8142540865
 H         -4.6637818632        1.1235728253        1.5084152410
 H         -3.2081901875        2.4614207627        3.0143698554
 H         -0.9167414343        3.0382972218        2.3205136236
 C          0.3327775913        2.4292173729       -0.0180831188
 H          0.8106297121        2.9778276247        0.8044697955
 C          0.3475277573        3.3089104044       -1.2529418845
 C          0.0282099872        4.7657706288       -1.1107677208
 C          1.4305456740        4.3314222922       -1.4125556915
 H          1.8277152572        4.5108469258       -2.4003991968
 H          2.1677751793        4.4065729661       -0.6264397610
 H         -0.1846623750        5.1369391111       -0.1197470858
 H         -0.5410556869        5.2465232106       -1.8913857233
 H          0.0079033639        2.8042836522       -2.1479218806
 O          2.0805713419        1.5045842257        1.9642099144
