  62
        -98.93724246
 C         -1.9132026646       -1.3426704907        0.2650461633
 C         -1.9490999164       -0.1685611382       -0.5237288820
 C         -3.2849568685        0.3925576946       -0.7918795096
 C         -4.3730696718       -0.2209593690       -0.2963618050
 C         -5.8221745600        0.1590986975       -0.4700461523
 C         -6.1836311847        1.6456350107       -0.3388221332
 C         -5.3167039362        2.4425302830        0.6472488020
 H         -4.7129411935        1.7626725081        1.2509674355
 H         -5.9691007229        2.9901579798        1.3300802942
 C         -4.4041485236        3.4585491379       -0.0444890504
 H         -4.1087732634        4.2180101513        0.6836329298
 H         -4.9739523865        3.9627620001       -0.8281912183
 C         -3.1214434015        2.8871538873       -0.6477882156
 H         -2.4351820219        2.5914573349        0.1507841268
 H         -2.6304420100        3.6852849388       -1.2099665498
 C         -3.3104480586        1.6744260579       -1.5733850585
 H         -2.4534245516        1.6335772919       -2.2507857664
 H         -4.2170490705        1.7683788674       -2.1660705732
 H         -7.2271793365        1.6894681613       -0.0224646901
 H         -6.1335576426        2.1209816362       -1.3174918775
 H         -6.3591324015       -0.4162019394        0.2880004717
 H         -6.1557834676       -0.2051049843       -1.4460230592
 O         -4.2910272126       -1.3584860690        0.4514869347
 C         -3.0722282365       -1.9410545330        0.7546138488
 O         -3.1516444912       -2.9687960695        1.4588016738
 O         -0.9215533432        0.3854147023       -0.9884590603
 C         -0.5847535738       -1.9937659911        0.5969274775
 C          0.3359728902       -1.0326162211        1.3106507964
 C         -0.1831453270       -0.0853505179        2.1879519498
 C          0.6430779080        0.8139639856        2.8356320873
 C          2.0124204562        0.7789069337        2.6384140572
 C          2.5443826637       -0.1786997831        1.7878486019
 C          1.7114203692       -1.0759587311        1.1307544982
 H          2.1445177181       -1.8094755857        0.4678084320
 N          3.9443870918       -0.2112116521        1.5898242276
 S          4.5674264745        1.0134538745        0.6271797304
 O          5.9952232645        0.7939489478        0.5818653937
 O          4.1271167948        2.2806244437        1.1493156935
 C          3.8567004374        0.7025839949       -0.9782103399
 C          4.6122875496        0.0484673672       -1.9321666851
 C          4.0236986692       -0.2807269754       -3.1421137384
 C          2.6903515739        0.0289527468       -3.3680770930
 C          1.9440908502        0.6810402229       -2.3987417990
 C          2.5316957365        1.0253809200       -1.1916591014
 H          1.9678050077        1.5297338015       -0.4238990674
 H          0.8990469613        0.9005943060       -2.5475113628
 H          2.2274890601       -0.2414130484       -4.3045170315
 H          4.6006192747       -0.7853898343       -3.9005514067
 H          5.6418419116       -0.1815450024       -1.7092294603
 H          4.2745008168       -1.0987377565        1.2346962106
 H          2.6707185389        1.4849583970        3.1172494098
 H          0.2170716551        1.5499164868        3.5011636423
 H         -1.2522738099       -0.0525779152        2.3494632542
 H         -0.8155884672       -2.8202823353        1.2857965061
 C          0.0342610366       -2.5659492135       -0.6645037184
 C          0.8230561543       -3.8395285924       -0.6217325357
 C         -0.5398988785       -3.8222298878       -1.2442565496
 H         -0.6211846093       -3.9065291900       -2.3173348713
 H         -1.3546552866       -4.2864281924       -0.7071124254
 H          1.6790400506       -3.9381859395       -1.2727698461
 H          0.9330603955       -4.3318813159        0.3330714878
 H          0.3484434419       -1.7927478080       -1.3565327666
