  62
        -98.94022798
 C         -1.1621672849       -1.6092122616       -0.3441933354
 C         -1.2162464064       -0.1993456719       -0.4519901017
 C         -2.3525096372        0.4755101928        0.2111543641
 C         -3.2933059641       -0.2675508167        0.8202901135
 C         -4.5510519085        0.2004182305        1.5020968511
 C         -5.6413883169        0.6337093401        0.5064777617
 C         -5.1455915123        1.4543106514       -0.6818003414
 H         -4.3722542415        0.8915085468       -1.2075023345
 H         -5.9840761895        1.5780069605       -1.3721793361
 C         -4.6156306742        2.8442938374       -0.3387543454
 H         -5.4144017446        3.4276733715        0.1250046316
 H         -4.3494729178        3.3331566473       -1.2791878110
 C         -3.3947736699        2.8836446985        0.5818972948
 H         -3.6763363695        2.6763161740        1.6109604176
 H         -3.0078573879        3.9072439858        0.5691521988
 C         -2.2409334312        1.9797098340        0.1581280576
 H         -1.9519926568        2.2238629956       -0.8702391167
 H         -1.3651889393        2.2179394680        0.7772725855
 H         -6.1111885633       -0.2698986635        0.1107506773
 H         -6.4007497016        1.1977358158        1.0505331794
 H         -4.9265756869       -0.6449688152        2.0830595339
 H         -4.3170328721        1.0001488885        2.1991719841
 O         -3.2345752939       -1.6298854802        0.8462608901
 C         -2.1670311209       -2.3225332729        0.3142981108
 O         -2.2306043655       -3.5596681980        0.4722291959
 O         -0.3728803287        0.4982877731       -1.0756701816
 C         -0.0041053756       -2.4494884326       -0.8635822750
 C          1.1342776432       -2.3907585589        0.1270288160
 C          1.5611464644       -3.5259994033        0.8057691027
 C          2.5805677485       -3.4432784295        1.7382075121
 C          3.1809057932       -2.2294467134        2.0213561476
 C          2.7587049835       -1.0884191018        1.3478621140
 C          1.7565617110       -1.1799715619        0.3948721861
 H          1.4253013551       -0.2902580554       -0.1128990820
 N          3.3487057861        0.1593976831        1.5905451537
 S          2.4397470090        1.5613083176        1.4700050126
 O          3.2223323705        2.5488187094        2.1894532487
 O          1.0928497051        1.3729237105        1.9597120857
 C          2.4587860351        1.9917962293       -0.2570051849
 C          3.4310345575        1.4747620768       -1.0889189239
 C          3.4440518768        1.8593931402       -2.4200279425
 C          2.4958297957        2.7529834125       -2.8926300193
 C          1.5321130720        3.2691352787       -2.0414623449
 C          1.5126878969        2.8874675076       -0.7100848742
 H          0.7712516328        3.2558615908       -0.0196283388
 H          0.7909680900        3.9604550249       -2.4096916868
 H          2.5044703531        3.0455267859       -3.9310337071
 H          4.1907038091        1.4554282928       -3.0850352162
 H          4.1476343167        0.7725745438       -0.6961335175
 H          4.0028787878        0.1940888308        2.3581533364
 H          3.9647199836       -2.1621968316        2.7604696942
 H          2.9028775212       -4.3313900346        2.2605712006
 H          1.0749397133       -4.4713293859        0.6132577518
 H         -0.3750242373       -3.4830263545       -0.8917608395
 C          0.4599998622       -2.0649306454       -2.2546426710
 C          1.2367026709       -3.0620466100       -3.0590009638
 C         -0.1700362366       -2.7187852956       -3.4457064244
 H         -0.3340423032       -2.1240695334       -4.3315840794
 H         -0.9432329487       -3.4513311106       -3.2633064466
 H          2.0423074845       -2.7043677177       -3.6811528047
 H          1.4173377814       -4.0302388212       -2.6168771222
 H          0.7300603229       -1.0214483716       -2.3448658419
