  62
        -98.93287785
 C          1.9483377844        0.5167529790        1.0093599684
 C          2.7878263440        1.0931403860        0.0246832659
 C          4.1871767872        0.6273759244        0.0186222076
 C          4.5837204418       -0.2970153068        0.9103749179
 C          5.9455594606       -0.9287178267        0.9687461216
 C          6.0781753376       -1.9989833069       -0.1335857454
 C          7.1118006774       -1.6705676035       -1.2113424203
 H          8.1119014847       -1.8421141909       -0.8075391922
 H          6.9629967151       -2.3758047598       -2.0319082062
 C          7.0693184624       -0.2433677546       -1.7661188036
 H          7.6604811341       -0.2419359183       -2.6844404507
 H          7.5703938627        0.4344310424       -1.0733452485
 C          5.6746956156        0.3150527513       -2.0769442427
 H          4.9686478347       -0.4949901061       -2.2613865479
 H          5.7398699580        0.8958006423       -2.9993049329
 C          5.1048823374        1.2523817749       -0.9957191590
 H          5.9264293942        1.7589729392       -0.4818447337
 H          4.4987203012        2.0207021698       -1.4847673123
 H          5.0986387931       -2.1370689262       -0.5964267109
 H          6.3479947779       -2.9549708035        0.3179447303
 H          6.0500717810       -1.3838631885        1.9539597521
 H          6.7113575783       -0.1645926178        0.8548134746
 O          3.7459127431       -0.8327213646        1.8367331085
 C          2.4203606356       -0.4439648546        1.9073623859
 O          1.7676782723       -1.0111354830        2.8075853535
 O          2.4109804092        1.9514569434       -0.8126964150
 C          0.4807064522        0.8792268368        1.1678040701
 C         -0.3799255192        0.0139521042        0.2840470557
 C         -0.1186800412       -0.1121496882       -1.0767717147
 C         -0.9228751643       -0.9043559970       -1.8757373996
 C         -2.0066657475       -1.5774145997       -1.3389156418
 C         -2.2806813897       -1.4510956699        0.0159428875
 C         -1.4679932522       -0.6605200282        0.8180755479
 H         -1.6760772472       -0.5809267983        1.8766374936
 N         -3.4100104776       -2.1026188697        0.5531743381
 S         -4.8809709375       -1.6599692988       -0.1262687977
 O         -5.8798304106       -1.9933877734        0.8633353757
 O         -5.0208572545       -2.2942619202       -1.4118879139
 C         -4.7424733302        0.1071458042       -0.3197082414
 C         -4.3579972940        0.6336560597       -1.5363151390
 C         -4.1434812323        1.9990586794       -1.6363042940
 C         -4.3161643334        2.8096975447       -0.5255648046
 C         -4.7137676879        2.2668263457        0.6867967696
 C         -4.9224507274        0.9016280114        0.7953945377
 H         -5.2321521072        0.4416612643        1.7204337351
 H         -4.8515031439        2.9014904654        1.5474701051
 H         -4.1362882238        3.8699071123       -0.6032213297
 H         -3.8352094317        2.4245241055       -2.5776945454
 H         -4.2379205056       -0.0288928530       -2.3773181347
 H         -3.4641798482       -2.0412949272        1.5601639068
 H         -2.6488226135       -2.1933931926       -1.9477025366
 H         -0.7054911673       -0.9972594279       -2.9290411607
 H          0.7165487597        0.4244489106       -1.5000198356
 H          0.2386088415        0.6272280283        2.2123238463
 C          0.2033150952        2.3664149394        0.9847314048
 C         -0.6333543332        2.9237698801       -0.1240932433
 C         -1.1673238894        2.9033726787        1.2741657622
 H         -1.2551229730        3.8338893846        1.8136929115
 H         -1.9424950246        2.1855226285        1.4979906830
 H         -0.3260805519        3.8655096183       -0.5517092231
 H         -1.0597482443        2.2384317268       -0.8394412594
 H          1.0413298194        2.9757622994        1.3055778005
