  62
        -98.93776282
 C          1.9604631406        1.1839416406       -0.1170773205
 C          2.4351653301        0.0151960103       -0.7569704404
 C          3.8916553900       -0.2054228900       -0.7079271608
 C          4.6775201704        0.6932271399       -0.0908059112
 C          6.1797083405        0.6871248895        0.0436226584
 C          6.8512509402       -0.6456933106        0.4046666784
 C          6.0162518603       -1.5749860101        1.2977508689
 H          6.6262893404       -1.8945470001        2.1447042788
 H          5.1566222305       -1.0364866798        1.7001697890
 C          5.5342174097       -2.8309653902        0.5674720393
 H          6.3556114194       -3.2202486005       -0.0381553508
 H          5.2847037298       -3.5942463400        1.3084785196
 C          4.3039733595       -2.6447505701       -0.3202727103
 H          3.4174421297       -2.4852564297        0.2999991099
 H          4.1432896591       -3.5742299001       -0.8720570301
 C          4.3816848395       -1.4835379603       -1.3248533806
 H          5.3852790394       -1.3779892106       -1.7298757910
 H          3.6948428892       -1.7049032603       -2.1464761604
 H          7.1177281998       -1.1779580708       -0.5074165215
 H          7.7871713105       -0.4005722807        0.9095214481
 H          6.6066317203        1.0608204892       -0.8915217219
 H          6.3983145109        1.4283945297        0.8158951881
 O          4.1755425709        1.8128928102        0.5034974387
 C          2.8181867110        2.0811169305        0.5169397091
 O          2.5051570814        3.1287256807        1.1181350789
 H         -1.5730708901       -0.0999891287       -1.1031975191
 C         -1.2798462698       -0.3501025986       -0.0982274992
 C         -0.2700107895        0.3491541613        0.5418901104
 C          0.0902302608       -0.0296848685        1.8336509104
 C         -0.5325997692       -1.0914391582        2.4586422908
 C         -1.5364717396       -1.7926935381        1.8128969512
 C         -1.9069793299       -1.4214833483        0.5264698113
 N         -2.9037199503       -2.1358086082       -0.1552393783
 S         -4.0767021804       -1.3628340781       -1.0570997581
 O         -5.0691877907       -2.3850434179       -1.3048557776
 O         -3.4966631606       -0.7411282385       -2.2191309984
 C         -4.7452515897       -0.1284408276        0.0427279919
 C         -5.7012180396       -0.5195474272        0.9603057322
 C         -6.1897476390        0.4136631431        1.8597597722
 C         -5.7097923887        1.7145109530        1.8323702517
 C         -4.7501464889        2.0909041026        0.9056090014
 C         -4.2601175094        1.1627313022        0.0001333814
 H         -3.5184660596        1.4210594319       -0.7373027889
 H         -4.3797565686        3.1034677725        0.8835646110
 H         -6.0875375583        2.4407027133        2.5347328417
 H         -6.9399270289        0.1255074935        2.5784179725
 H         -6.0555462098       -1.5374053171        0.9398179026
 H         -3.2997059804       -2.9029036879        0.3676282620
 H         -2.0182401297       -2.6296697678        2.2950811016
 H         -0.2366676390       -1.3771148180        3.4568744808
 H          0.8786664311        0.5167764714        2.3341172900
 C          0.4735302806        1.4946133710       -0.1002698801
 H          0.3587194511        2.3811419112        0.5402238097
 C         -0.0062876997        1.8379419008       -1.4941797100
 C         -1.1704260595        2.7620785511       -1.6814601599
 C          0.2155752405        3.2248516406       -2.0151015904
 H          0.4852540402        3.3485477803       -3.0532315805
 H          0.6928835109        3.9322726806       -1.3523380707
 H         -1.6312186591        3.1682522514       -0.7933924698
 H         -1.8573963598        2.5676222011       -2.4921497296
 H          0.1151305299        1.0204825406       -2.1959029899
 O          1.6868877497       -0.8051782196       -1.3490972600
