  62
        -98.93637878
 C         -1.8319305406       -0.3857865277       -0.2976886367
 C         -2.9267081122       -1.1204365471        0.2124800817
 C         -4.2453269057       -0.4618614286        0.1734085844
 C         -4.3315794695        0.7945182275       -0.2994165997
 C         -5.5515048447        1.6694351263       -0.4424910916
 C         -6.5392434564        1.6783825580        0.7343365329
 C         -7.8613480569        0.9740107082        0.4244698401
 H         -8.6335529191        1.3740592479        1.0853718757
 H         -8.1521782850        1.2168631454       -0.5997107233
 C         -7.8456827207       -0.5437069129        0.5985101252
 H         -7.8067080759       -0.7848608131        1.6629812262
 H         -8.7919262872       -0.9300647065        0.2124311291
 C         -6.6966716006       -1.2706415812       -0.1030042243
 H         -6.5207136900       -0.8439026521       -1.0898203181
 H         -7.0015455054       -2.3082613207       -0.2547156370
 C         -5.3902935300       -1.2805104740        0.7050132882
 H         -4.9984767923       -2.3009970466        0.7577213193
 H         -5.5885472499       -0.9818777719        1.7383600069
 H         -6.7612226937        2.7197853159        0.9731459894
 H         -6.0718853277        1.2391439105        1.6141811075
 H         -5.1585311435        2.6757412706       -0.6048806169
 H         -6.0723239505        1.3882068251       -1.3613410446
 O         -3.2435355764        1.4722422343       -0.7661460995
 C         -1.9776496150        0.9106610627       -0.7884752748
 O         -1.0963071560        1.6552594727       -1.2569863628
 O         -2.8106092332       -2.2850096628        0.6815053966
 C         -0.4559292233       -1.0305730704       -0.2979600415
 C          0.4693205447       -0.2180072091        0.5722859688
 C          0.2096670312       -0.1630367533        1.9404872415
 C          0.9952541803        0.6025326017        2.7786830936
 C          2.0628731436        1.3235899244        2.2716386771
 C          2.3306941656        1.2771956759        0.9091638414
 C          1.5394069542        0.5032777577        0.0688253966
 H          1.7555559587        0.5062503131       -0.9855564633
 N          3.3907100471        2.0238592871        0.3716824341
 S          4.4359444124        1.3754447897       -0.7569694811
 O          5.5296794181        2.3199047561       -0.8169936094
 O          3.7503493493        1.1111783070       -1.9952389300
 C          4.9980998483       -0.1478105389       -0.0188238536
 C          6.0750431279       -0.1011054241        0.8453797286
 C          6.4847877014       -1.2671861889        1.4708227253
 C          5.8078565689       -2.4533193324        1.2297434181
 C          4.7278216189       -2.4828754111        0.3612476797
 C          4.3153297364       -1.3204116769       -0.2712620415
 H          3.4829000540       -1.3071634035       -0.9548885243
 H          4.2032678183       -3.4059108430        0.1724591591
 H          6.1248457284       -3.3609063975        1.7188159397
 H          7.3272745197       -1.2481003343        2.1432584515
 H          6.5784716188        0.8401603975        0.9957768802
 H          3.8972469054        2.5753263879        1.0485889397
 H          2.6744127331        1.9297056636        2.9227334383
 H          0.7789746915        0.6385701334        3.8357078337
 H         -0.6289221709       -0.7221135231        2.3324555816
 H         -0.5983140100       -2.0129655654        0.1746722955
 C          0.0409998315       -1.2403554658       -1.7117315851
 C          1.0492753066       -2.3120806158       -1.9954873606
 C         -0.3699384360       -2.4793062527       -2.4472307174
 H         -0.5905713585       -2.4032514784       -3.5014014907
 H         -0.9949942356       -3.1850607325       -1.9198746856
 H          1.8061246154       -2.1216425059       -2.7422261047
 H          1.3841629208       -2.9124023329       -1.1628861232
 H          0.0984449190       -0.3214536172       -2.2844729923
