  62
        -98.94759611
 C          2.5318132246       -0.2807301083       -0.0049962480
 C          2.2201249480       -1.2883488870        0.9375178401
 C          1.5934905019       -2.5026668121        0.4014792539
 C          1.3725216421       -2.5979770206       -0.9222688636
 C          0.7410695743       -3.7775399866       -1.6039808406
 C         -0.7757581935       -3.6070211986       -1.7534943337
 C         -1.4912765649       -3.2144263948       -0.4606350088
 H         -1.2100905565       -2.1929942954       -0.1927411422
 H         -2.5623547231       -3.1965780939       -0.6778142608
 C         -1.2290567684       -4.1445999875        0.7314498936
 H         -2.1765990625       -4.3251794386        1.2432121289
 H         -0.8593624029       -5.1084256536        0.3781855486
 C         -0.2637841022       -3.5771263063        1.7744579137
 H         -0.3593252193       -4.1714972496        2.6874712299
 H         -0.5574936943       -2.5513918685        2.0160750190
 C          1.2194904221       -3.5788972108        1.3808934424
 H          1.4998080301       -4.5641251735        1.0012643776
 H          1.8053790819       -3.3778646057        2.2827850137
 H         -1.1900559187       -4.5438563847       -2.1321617665
 H         -0.9647495599       -2.8227958524       -2.4902384505
 H          1.1839944860       -3.8714293993       -2.5974268790
 H          0.9611298976       -4.6772991353       -1.0320830966
 O          1.6978902690       -1.6152037233       -1.8003021614
 C          2.2349252613       -0.4154128356       -1.3611942746
 O          2.4253742337        0.4229236459       -2.2639439905
 O          2.4634034678       -1.1781710874        2.1715170241
 C          3.0848957262        1.0442333937        0.4920892505
 C          2.0574323122        2.1184460717        0.2280054324
 C          2.3457870710        3.3571443827       -0.3288769970
 C          1.3263541699        4.2567712753       -0.5931978749
 C          0.0067370880        3.9359801908       -0.3324253486
 C         -0.2885312625        2.7052731665        0.2434034148
 C          0.7371175957        1.8271759533        0.5447269017
 H          0.4959740968        0.8765466437        0.9979451292
 N         -1.6115896546        2.3193430860        0.5302062212
 S         -1.9726960091        0.6851981580        0.2609165531
 O         -1.6344063150       -0.0625167312        1.4462667763
 O         -1.3775226507        0.2455387977       -0.9798217657
 C         -3.7470852513        0.7664995153        0.1033211003
 C         -4.3185378940        0.7584998713       -1.1546899789
 C         -5.6968702119        0.8569302052       -1.2655871929
 C         -6.4751035022        0.9645475332       -0.1228499862
 C         -5.8869775445        0.9697946264        1.1334684071
 C         -4.5098328291        0.8699539127        1.2513802877
 H         -4.0077470135        0.8597667873        2.2046718804
 H         -6.4952960532        1.0501914613        2.0197791356
 H         -7.5471360498        1.0417451901       -0.2119876107
 H         -6.1563234777        0.8490594859       -2.2408160400
 H         -3.6720272138        0.6655651236       -2.0128527979
 H         -2.2953997708        2.9236720636        0.0939283751
 H         -0.7873856661        4.6264296466       -0.5730447429
 H          1.5621462090        5.2141880996       -1.0327515861
 H          3.3645278488        3.6120627426       -0.5712364661
 H          3.1894692899        0.9270026325        1.5816263983
 C          4.4442530364        1.3386963497       -0.1032847945
 C          5.4281206901        2.1839552431        0.6479509293
 C          5.6567331829        0.7095034235        0.5126332682
 H          6.4451063888        0.3647906135       -0.1392800933
 H          5.5026998283        0.0842288754        1.3800561344
 H          6.0651549395        2.8527826302        0.0892721561
 H          5.1265368199        2.5623207194        1.6129399040
 H          4.4151722095        1.4187236155       -1.1839435216
