  62
        -98.93182902
 C         -2.0174513797       -1.0280864002        0.6533445503
 C         -1.9681041399       -0.2868167700       -0.5531162295
 C         -2.1827240001        1.1644053100       -0.4318285892
 C         -2.3617180302        1.7055962297        0.7856015109
 C         -2.6440088604        3.1543356696        1.0668426712
 C         -4.1123266105        3.4871153594        0.7331619813
 C         -4.2880176907        4.4693673796       -0.4249842785
 H         -5.3439729007        4.4615481295       -0.7029413185
 H         -4.0452748108        5.4752834296       -0.0764220083
 C         -3.4419688606        4.1871544600       -1.6699745586
 H         -3.8574893507        4.7893246101       -2.4806710684
 H         -2.4225057807        4.5408545802       -1.5090657585
 C         -3.3851101804        2.7224358201       -2.1224540489
 H         -3.4165198704        2.7025088303       -3.2136323689
 H         -4.2597513803        2.1761052699       -1.7690972390
 C         -2.1096213103        1.9696702402       -1.6997681891
 H         -1.8584109402        1.2407400204       -2.4762582192
 H         -1.2725067504        2.6703511604       -1.6292194589
 H         -4.5986456505        3.9066538992        1.6150999114
 H         -4.6298508403        2.5535828994        0.5029194111
 H         -1.9653446605        3.7748929098        0.4854180713
 H         -2.4452722504        3.3217358594        2.1258631712
 O         -2.3765541100        0.9658575995        1.9260854107
 C         -2.1764797998       -0.4036028405        1.8907021605
 O         -2.1631133897       -0.9470988907        3.0157002503
 O         -1.7538801398       -0.8005483497       -1.6818779196
 C         -1.7189329095       -2.5181178902        0.6815182800
 C         -0.4794944595       -2.7904162998       -0.1382591501
 C         -0.3639675093       -3.8182163996       -1.0630402203
 C          0.8163753407       -3.9931059493       -1.7670570703
 C          1.8892999106       -3.1428170691       -1.5825764802
 C          1.7782685004       -2.1011381693       -0.6650851700
 C          0.6155757404       -1.9588043497        0.0692486201
 H          0.5459159503       -1.1638422698        0.7991479302
 N          2.8242975003       -1.1747846992       -0.5164510398
 S          2.7689058201        0.0657651306        0.6073804005
 O          2.8200502502       -0.4547987097        1.9586702804
 O          1.6640325299        0.9377953804        0.2956346507
 C          4.3054987999        0.8813737409        0.2170054006
 C          4.3512409398        1.6858332711       -0.9060917192
 C          5.5443469897        2.3072982214       -1.2379486091
 C          6.6666381097        2.1151758514       -0.4454997492
 C          6.6052555599        1.3074411912        0.6798157007
 C          5.4146167100        0.6820621509        1.0164891006
 H          5.3164043201        0.0521943607        1.8859698804
 H          7.4780360799        1.1628597412        1.2958403406
 H          7.5939267196        2.6006992416       -0.7054623991
 H          5.5942586796        2.9380604416       -2.1108121690
 H          3.4505483498        1.8108809011       -1.4847309292
 H          3.7492438903       -1.5561464790       -0.6483030799
 H          2.7989036606       -3.2674359689       -2.1489437502
 H          0.8950985608       -4.7989252091       -2.4810975305
 H         -1.1998601592       -4.4726550897       -1.2477841204
 H         -1.4692166994       -2.7319897804        1.7354388500
 C         -2.8973671194       -3.4127460303        0.3256628098
 C         -4.3066941594       -2.9095702206        0.4144035000
 C         -3.7019025294       -3.2114439802       -0.9219763101
 H         -4.0494377593       -4.0852280301       -1.4536105703
 H         -3.4240992796       -2.3881150800       -1.5601540199
 H         -5.0635115493       -3.5743489808        0.8034886298
 H         -4.4505285496       -1.8745518206        0.6902070102
 H         -2.7386621192       -4.4386297203        0.6437105596
