  62
        -98.94125946
 C         -1.8692859644        0.6095095621       -0.0199229588
 C         -2.5864912603        0.0912215002       -1.1281104394
 C         -3.6778185324       -0.8416357172       -0.8188900200
 C         -3.8892004505       -1.2019533926        0.4598143412
 C         -4.9970863882       -2.1004858827        0.9257169175
 C         -6.2494462521       -1.2919959826        1.2929793575
 C         -6.6660727104       -0.2786039878        0.2268465799
 H         -7.5757470614        0.2106598732        0.5815031162
 H         -5.8968264047        0.4931864190        0.1486475864
 C         -6.9190397624       -0.8843013242       -1.1608827027
 H         -7.0654273794       -1.9615592814       -1.0736834169
 H         -7.8427327786       -0.4633264938       -1.5634221161
 C         -5.8184234205       -0.6043048336       -2.1858951662
 H         -5.6049203195        0.4674241803       -2.2107270699
 H         -6.1941695545       -0.8852421564       -3.1733219291
 C         -4.4984134284       -1.3547316563       -1.9685316124
 H         -4.6966513049       -2.4225599453       -1.8547884865
 H         -3.8836733791       -1.2126045441       -2.8623475998
 H         -7.0691801308       -1.9894539386        1.4746124504
 H         -6.0519664827       -0.7508567799        2.2212874097
 H         -5.2315765783       -2.8172529299        0.1408820189
 H         -4.6524670595       -2.6420481453        1.8083805886
 O         -3.1308059919       -0.7480655195        1.4883896751
 C         -2.1074816627        0.1714863347        1.2841880243
 O         -1.5073063613        0.4928855068        2.3251837473
 O         -2.3200299349        0.3910464314       -2.3231022918
 C         -0.7558992665        1.6010173163       -0.3081010488
 C          0.5051009006        1.1890452188        0.4087080399
 C          1.1633455687        1.9845592182        1.3360060097
 C          2.3090100057        1.5262218221        1.9639256638
 C          2.8254735756        0.2766929789        1.6780385336
 C          2.1814836910       -0.5227514827        0.7413057935
 C          1.0388486385       -0.0592700318        0.1088331329
 H          0.5329236433       -0.6867926978       -0.6151301559
 N          2.7031280934       -1.7905818456        0.4349854927
 S          4.3557027213       -1.9382166641        0.2244838923
 O          4.5233164686       -3.0721009037       -0.6576662159
 O          5.0039406364       -2.0402173344        1.5082512773
 C          4.8606775810       -0.4323140175       -0.5888472686
 C          4.3135162196       -0.1467414496       -1.8241710621
 C          4.6665813411        1.0336966760       -2.4571415526
 C          5.5561769653        1.9046879396       -1.8465223223
 C          6.1010045682        1.6011234449       -0.6087995798
 C          5.7500617080        0.4222751543        0.0296641211
 H          6.1480225551        0.1482437279        0.9930985215
 H          6.7941076084        2.2791505541       -0.1376479909
 H          5.8261731392        2.8246323716       -2.3405115362
 H          4.2442123113        1.2706626861       -3.4205209362
 H          3.6287166856       -0.8474498988       -2.2746793918
 H          2.1917183191       -2.2874435106       -0.2787005884
 H          3.7030255235       -0.1015594797        2.1766694300
 H          2.8026321091        2.1490185251        2.6941281089
 H          0.7642864078        2.9522346348        1.5904841840
 H         -0.5762582012        1.4940109731       -1.3912762782
 C         -1.1377068983        3.0557283402       -0.0799078943
 C         -2.5627012155        3.5054258894       -0.1961954246
 C         -1.8812403145        3.5133265231        1.1376353085
 H         -1.6168088043        4.4675144312        1.5696774287
 H         -2.1583313323        2.7672163698        1.8654334405
 H         -2.7668596202        4.4494410808       -0.6787873239
 H         -3.3122307547        2.7496045182       -0.3820877463
 H         -0.3889073671        3.7354045358       -0.4746702238
