  62
        -98.93961424
 C         -1.0283809798       -1.3225032809       -0.2197197494
 C         -1.9540576198       -1.1047518304        0.8348925905
 C         -2.8760720898        0.0288016996        0.6817685299
 C         -2.7841914998        0.7981000490       -0.4176603705
 C         -3.7150414197        1.9214689089       -0.7775221110
 C         -5.0378145197        1.3485700186       -1.3260405708
 C         -6.2582401997        1.6320624291       -0.4497689110
 H         -7.0757503197        1.0071560289       -0.8156581407
 H         -6.5566498797        2.6741751490       -0.5824471615
 C         -6.0758155598        1.3852484198        1.0510302191
 H         -7.0740141798        1.3728984000        1.4939651691
 H         -5.5479628398        2.2274442700        1.5009301388
 C         -5.3511231698        0.0887795799        1.4354183798
 H         -5.4467606698       -0.6546138204        0.6436122301
 H         -5.8415977199       -0.3245812496        2.3191345399
 C         -3.8629046198        0.2668809301        1.7908573797
 H         -3.5997440999       -0.4635656696        2.5615121501
 H         -3.7065501098        1.2627158603        2.2145598793
 H         -4.9197417597        0.2699508486       -1.4491412203
 H         -5.2284396497        1.7579992182       -2.3191888910
 H         -3.2203117897        2.5248113985       -1.5386020413
 H         -3.9056432697        2.5412728993        0.0959863287
 O         -1.8607599097        0.5841849086       -1.3868002003
 C         -0.9600359197       -0.4658212314       -1.3183574698
 O         -0.1787632897       -0.5066165919       -2.2905896698
 O         -2.0117529099       -1.8384698999        1.8573954208
 C         -0.1155693098       -2.5311098508       -0.0812506988
 C          1.2517579702       -2.1200785406        0.4064877410
 C          1.7084653501       -2.4972534001        1.6638715412
 C          2.9501698401       -2.0860829699        2.1187425311
 C          3.7566451902       -1.2804179502        1.3341209607
 C          3.3017450502       -0.8911752308        0.0814605205
 C          2.0676962202       -1.3200892310       -0.3811445993
 H          1.7184378003       -0.9999477915       -1.3513794595
 N          4.0882439502       -0.0102298412       -0.7010006398
 S          4.1100695503        1.5618123991       -0.1211540606
 O          4.7359549503        2.3586943086       -1.1511088609
 O          4.7559562002        1.5625171097        1.1667789794
 C          2.3986666003        2.0358123992        0.0635973991
 C          1.8033266203        2.7902906387       -0.9266828612
 C          0.4713754703        3.1450522788       -0.7907972915
 C         -0.2436044497        2.7248444093        0.3193193987
 C          0.3608074902        1.9457971798        1.2932182991
 C          1.6970802002        1.6015670297        1.1709654293
 H          2.2007248502        1.0129058701        1.9203782596
 H         -0.2059155598        1.5997441802        2.1435753992
 H         -1.2802858797        3.0017093694        0.4264063186
 H         -0.0065781397        3.7408891985       -1.5517035317
 H          2.3953762103        3.0965183883       -1.7743575914
 H          3.7905895803        0.0120052884       -1.6676146999
 H          4.7123546601       -0.9235323101        1.6817153006
 H          3.2906649201       -2.3895104794        3.0970768712
 H          1.0744008101       -3.1034623097        2.2942738215
 H         -0.5764768299       -3.1488796005        0.7008727415
 C         -0.0218259598       -3.3559032914       -1.3501001584
 C          0.4151493402       -4.7858566314       -1.2562777777
 C         -1.0101886498       -4.4572500815       -1.5828392579
 H         -1.3641836798       -4.6275752220       -2.5885353379
 H         -1.7592347498       -4.6260186012       -0.8228707779
 H          1.0435190602       -5.1843329118       -2.0379010875
 H          0.6321613302       -5.1793069909       -0.2747893675
 H          0.2977415603       -2.7873313418       -2.2135503387
