  62
        -98.94540014
 C         -2.3905117649       -0.1378737358        0.2040990220
 C         -1.9651682803        0.7035897954        1.2660832825
 C         -1.7579029105        2.1166321638        0.9430480221
 C         -1.9631880879        2.5443372208       -0.3154575647
 C         -1.7936310246        3.9546693187       -0.8108683254
 C         -0.3436908298        4.3064365866       -1.1724190284
 C          0.5881225686        4.5216736599        0.0211255105
 H          1.4945045982        4.9940947024       -0.3628720939
 H          0.1268497207        5.2186957426        0.7222125392
 C          0.9798109726        3.2290604445        0.7507988730
 H          0.7789546902        2.3750038375        0.0991767917
 H          2.0561861385        3.2308400520        0.9418953730
 C          0.2816789811        3.0213039543        2.0951593001
 H          0.5965459823        3.8004202706        2.7932768433
 H          0.5998241956        2.0572625837        2.4987658547
 C         -1.2506915601        3.0228137429        2.0245137806
 H         -1.6370848372        2.6498724977        2.9764546013
 H         -1.6190345316        4.0367891345        1.8697456391
 H          0.0603024628        3.5110153261       -1.8047656684
 H         -0.3669077280        5.2256717227       -1.7630063703
 H         -2.4055951569        4.0446266369       -1.7111316726
 H         -2.1666260703        4.6565121787       -0.0639712379
 O         -2.3783924780        1.7146986484       -1.3048438859
 C         -2.5436275090        0.3536848506       -1.0924136703
 O         -2.8386053408       -0.2727309966       -2.1326918270
 H         -0.8527090505       -1.4637399302       -1.5755134205
 C         -0.3978807619       -1.9959158920       -0.7524244692
 C         -1.1268095482       -2.2233785863        0.4065978413
 C         -0.5182662040       -2.9130602319        1.4477607226
 C          0.7959799307       -3.3366817828        1.3426490481
 C          1.5407967847       -3.0389962104        0.2148677967
 C          0.9343598494       -2.3606351166       -0.8334091773
 N          1.7391586890       -1.9229790920       -1.9290883514
 S          2.1434675353       -0.2949711335       -1.6878675297
 O          0.9663112118        0.5302823753       -1.5195486254
 O          3.0036289190        0.0685578785       -2.7933151424
 C          3.0688273530       -0.3619313416       -0.1726132713
 C          4.4195758218       -0.6437657999       -0.2267025200
 C          5.1297790647       -0.7418391088        0.9592071536
 C          4.4784684236       -0.5631887826        2.1705702157
 C          3.1208368273       -0.2831721096        2.2070380908
 C          2.4048679309       -0.1825808367        1.0250348736
 H          1.3461091666        0.0287459514        1.0151842234
 H          2.6102628177       -0.1481863451        3.1472195560
 H          5.0303293033       -0.6427077716        3.0938336713
 H          6.1853099336       -0.9596400082        0.9355249353
 H          4.8797878921       -0.7723736863       -1.1924553218
 H          1.2508460656       -1.9847765287       -2.8138476063
 H          2.5811963334       -3.3100103986        0.1401809143
 H          1.2553161935       -3.8694277335        2.1604938179
 H         -1.0726615276       -3.0876713494        2.3576734479
 C         -2.5038998477       -1.6173323023        0.5433229466
 H         -2.7811488574       -1.6583811911        1.6058467401
 C         -3.5332553237       -2.3901090182       -0.2523479893
 C         -4.0747659952       -3.6681589574        0.3129454020
 C         -4.9472330305       -2.4520498597        0.2387733195
 H         -5.7436445382       -2.4262127090       -0.4893843533
 H         -5.1799670374       -1.9337312268        1.1574725524
 H         -4.2725594842       -4.4846801868       -0.3641212753
 H         -3.7201168397       -3.9772973309        1.2842467053
 H         -3.3827293444       -2.3353488749       -1.3224020315
 O         -1.7687161042        0.2821036663        2.4376405527
