  62
        -98.94287559
 C          2.3067376067        0.6538217353       -0.0907932035
 C          1.2782973997        0.8761200910        0.8508880503
 C          0.4141579053        2.0475267147        0.6276546053
 C          0.6432560646        2.8323027700       -0.4400767791
 C         -0.1544542467        4.0032837072       -0.9584374457
 C         -0.7969028588        4.9644853166        0.0510030040
 C         -2.3100481796        4.7826856099        0.1972810112
 H         -2.7438315243        5.7314420457        0.5216773540
 H         -2.7262706689        4.5527886176       -0.7860223709
 C         -2.7551658275        3.7110872055        1.1905067786
 H         -2.5418784555        4.0488032082        2.2069932886
 H         -3.8389801115        3.6079465268        1.1002630036
 C         -2.1160096398        2.3356909915        0.9964646942
 H         -2.0740584170        2.0707189798       -0.0619506504
 H         -2.7558163144        1.5930492835        1.4795699792
 C         -0.7102093998        2.2283012026        1.6092228912
 H         -0.5078911684        3.0968287502        2.2402107411
 H         -0.6593529614        1.3514915016        2.2608009857
 H         -0.3034526815        4.8784055338        1.0168890727
 H         -0.6199592058        5.9784767408       -0.3122620673
 H          0.5404640033        4.5534759841       -1.5984421932
 H         -0.9232240681        3.5933620953       -1.6216572784
 O          1.6846819590        2.6113296182       -1.2939873687
 C          2.5076054382        1.5077650339       -1.1715288594
 O          3.3709386560        1.4008305611       -2.0682494786
 H          0.9997072062       -0.8733731901       -1.6045244860
 C          1.1021278288       -1.7307368890       -0.9552830467
 C          2.1671844520       -1.7980182792       -0.0654468535
 C          2.2842368485       -2.9231325600        0.7404406430
 C          1.3368110079       -3.9313143831        0.6769318513
 C          0.2436737758       -3.8281436559       -0.1642335231
 C          0.1248574236       -2.7113673025       -0.9839683970
 N         -0.9763684447       -2.5404238808       -1.8473409242
 S         -1.9478821111       -1.1888681191       -1.6474464947
 O         -2.9827886943       -1.3284754476       -2.6502090917
 O         -1.1568651970        0.0126976429       -1.7150543964
 C         -2.6772167742       -1.3844089071       -0.0304096980
 C         -4.0075596784       -1.7478673087        0.0571025764
 C         -4.5705468951       -1.9442334803        1.3075581101
 C         -3.7940803843       -1.7846316659        2.4455726382
 C         -2.4593103181       -1.4262122986        2.3397248877
 C         -1.8898360958       -1.2225060453        1.0917737731
 H         -0.8559644700       -0.9325382836        0.9928246296
 H         -1.8467786038       -1.2986905432        3.2181477605
 H         -4.2300602900       -1.9387302068        3.4200369383
 H         -5.6091289704       -2.2213791252        1.3903637217
 H         -4.5707749524       -1.8599412240       -0.8552405788
 H         -1.5650532562       -3.3585337781       -1.9259826136
 H         -0.5115707537       -4.5991973341       -0.1875843414
 H          1.4393784676       -4.7993798693        1.3100099331
 H          3.1116753597       -3.0058701639        1.4260418439
 C          3.1209250723       -0.6261218936       -0.0205502817
 H          3.7408579277       -0.6450212852       -0.9291239828
 C          4.0261729179       -0.6303933026        1.1931064298
 C          5.3315885724       -1.3656231210        1.1599100126
 C          5.3142307157        0.1324167017        1.1347808076
 H          5.6360671918        0.6693839475        2.0143101285
 H          5.5491867524        0.6344936600        0.2071866303
 H          5.5921835046       -1.8826449403        0.2486762344
 H          5.6708354496       -1.8560993489        2.0597969428
 H          3.4718597006       -0.6067132810        2.1239819847
 O          1.0660785172        0.1052702004        1.8256147921
