  62
        -98.94402886
 C          2.1002213326        1.3122831074        0.2410720071
 C          2.2111652377        0.5585884959       -0.9524440110
 C          3.0593392680       -0.6417012326       -0.8806285622
 C          3.6691708963       -0.9594612749        0.2752087266
 C          4.5036935531       -2.1864227886        0.4999129206
 C          3.6470325290       -3.3550376782        1.0077848655
 C          2.3783477267       -3.5887472957        0.1879460660
 H          1.8602585905       -4.4457175826        0.6239389862
 H          1.7248093453       -2.7199583469        0.2957313048
 C          2.6234325514       -3.8462726165       -1.3052199478
 H          3.6654006005       -4.1237408357       -1.4684358290
 H          2.0093415635       -4.6919000011       -1.6221878962
 C          2.2658558425       -2.6695951345       -2.2149415794
 H          1.2484278951       -2.3337090492       -1.9970652349
 H          2.2764914687       -3.0233881415       -3.2494515974
 C          3.2033739005       -1.4580105734       -2.1350004382
 H          4.2370018887       -1.7847779175       -2.2647085880
 H          2.9500187325       -0.7874715585       -2.9614597868
 H          4.2579328831       -4.2593601891        1.0037187297
 H          3.3546689157       -3.1465072833        2.0394271150
 H          4.9961495671       -2.4607939744       -0.4310067045
 H          5.2639960312       -1.9528328488        1.2469441318
 O          3.5474545867       -0.2103547732        1.3991230443
 C          2.7688241470        0.9326456579        1.4112478707
 O          2.7533186983        1.5250740847        2.5078452457
 H         -0.3623714525        1.4307610913       -1.4632287900
 C         -0.8890679968        1.6889467172       -0.5567118225
 C         -0.1948252488        2.2870138046        0.4851719788
 C         -0.8819793279        2.5861725205        1.6560017535
 C         -2.2330109676        2.3077902042        1.7719424314
 C         -2.9235953428        1.7172044439        0.7288050295
 C         -2.2401928293        1.3974701993       -0.4376530237
 N         -2.9187584587        0.7671616482       -1.4941131443
 S         -3.9714783421       -0.4741181567       -1.1163107425
 O         -3.9694574552       -1.3451028218       -2.2705345466
 O         -5.2533456629        0.0768781492       -0.7511651772
 C         -3.2631369629       -1.3082567741        0.2950501759
 C         -1.9705393873       -1.7852260072        0.2027200550
 C         -1.4153296330       -2.4287785136        1.2964500441
 C         -2.1564149531       -2.5848222513        2.4578402131
 C         -3.4540423648       -2.1042202327        2.5336115684
 C         -4.0142553705       -1.4586497854        1.4430319189
 H         -5.0179346894       -1.0658285629        1.4590986067
 H         -4.0282328056       -2.2276162830        3.4375863768
 H         -1.7161414825       -3.0837652119        3.3066876680
 H         -0.4054332042       -2.8031173134        1.2407670967
 H         -1.4142634055       -1.6501148157       -0.7119481934
 H         -2.3210823430        0.5250216126       -2.2709936993
 H         -3.9776310611        1.5018764281        0.7986637710
 H         -2.7547507734        2.5521469216        2.6844643133
 H         -0.3461795234        3.0312521915        2.4817207554
 C          1.2790885327        2.5892731569        0.3533751764
 H          1.6061152185        3.0653287706        1.2870237072
 C          1.5361057689        3.5550358006       -0.7879603628
 C          1.2227669652        5.0066258096       -0.5933488206
 C          2.6485692329        4.5503708915       -0.6672908012
 H          3.2242705967        4.7892658462       -1.5489585792
 H          3.2299081660        4.5422406944        0.2435051018
 H          0.8377276695        5.3106050071        0.3682953155
 H          0.8161749316        5.5617860045       -1.4247257316
 H          1.3579060361        3.1279566354       -1.7658229872
 O          1.6413452603        0.8468619981       -2.0401235077
