  62
        -98.93427563
 C         -1.9426652300       -0.8643778006       -0.2832089003
 C         -2.8001257701       -0.4274181004        0.7586768195
 C         -3.2614550800        0.9679374597        0.7083403191
 C         -2.8315013798        1.7620988995       -0.2863841709
 C         -3.1273631796        3.2234399694       -0.5170005912
 C         -4.5717711796        3.6960423296       -0.3009868416
 C         -5.6519906396        2.6636048196       -0.6555503416
 H         -6.3819625795        3.1282966695       -1.3209193018
 H         -5.2053434896        1.8268127495       -1.1953704514
 C         -6.4016839799        2.1385675698        0.5712275883
 H         -6.6217392900        2.9791025600        1.2328255481
 H         -7.3567080199        1.7193753599        0.2457130782
 C         -5.6787199101        1.0521042299        1.3664064587
 H         -6.2608720503        0.8518912101        2.2690161586
 H         -5.6540275401        0.1243423198        0.7885609988
 C         -4.2336997302        1.3809461699        1.7762575489
 H         -3.9877994504        0.7788449500        2.6550813290
 H         -4.1250827502        2.4316173099        2.0339189887
 H         -4.7022205298        4.0049009598        0.7351226983
 H         -4.7052714695        4.5886910995       -0.9144227318
 H         -2.8297903094        3.4123732492       -1.5514024712
 H         -2.4572614397        3.8077985995        0.1206087188
 O         -1.9937285996        1.3101944292       -1.2605346207
 C         -1.5284876697        0.0027286692       -1.2937250504
 O         -0.7906224995       -0.2315592810       -2.2712761402
 O         -3.1700297803       -1.1815097702        1.6989270795
 C         -1.4738329701       -2.3071848206       -0.2030003800
 C         -0.1696579602       -2.3911994106        0.5547982403
 C         -0.0751243405       -3.1515265104        1.7146023404
 C          1.1115069194       -3.2112689603        2.4230568407
 C          2.2193189995       -2.5050240605        1.9935458008
 C          2.1367307098       -1.7454067507        0.8307842906
 C          0.9507625099       -1.7007402907        0.1128282204
 H          0.9004543601       -1.0996201209       -0.7827909397
 N          3.2556220899       -1.0379396508        0.3640001007
 S          3.0145799102        0.4537433690       -0.3931480196
 O          1.9848755601        1.1992753392        0.2964246401
 O          2.8363920504        0.2328314988       -1.8050410296
 C          4.6114203202        1.2011875590       -0.1141858794
 C          5.6642650603        0.8328762588       -0.9309430092
 C          6.9162837403        1.3794242187       -0.6984549690
 C          7.0946094001        2.2801428289        0.3412823808
 C          6.0285896400        2.6424349791        1.1507586706
 C          4.7739480400        2.0976370192        0.9247553104
 H          3.9140361199        2.3536587093        1.5228552702
 H          6.1688745899        3.3456238792        1.9557897805
 H          8.0698055901        2.7046438589        0.5199770709
 H          7.7463597604        1.1019707886       -1.3277876588
 H          5.4738689004        0.1374428886       -1.7316738791
 H          4.0044148798       -0.9951528108        1.0421664808
 H          3.1430658194       -2.5381708505        2.5509556009
 H          1.1703328592       -3.8021482402        3.3243856008
 H         -0.9474927506       -3.6797008803        2.0699580804
 H         -2.2370039702       -2.8250354105        0.3952142200
 C         -1.3600843299       -3.0079667509       -1.5412951598
 C         -1.4584904000       -4.5025069009       -1.5875068096
 C         -2.5715084698       -3.6604597009       -2.1335954299
 H         -2.7096976396       -3.6098960411       -3.2030558500
 H         -3.4924907099       -3.6052083507       -1.5714756101
 H         -0.8289340099       -5.0363117510       -2.2824835294
 H         -1.6276779402       -5.0219832507       -0.6565733395
 H         -0.6715254597       -2.5254166410       -2.2227496098
