  62
        -98.93631606
 C         -2.0161086829       -0.1093336263       -0.9897726543
 C         -2.8995831363        0.9059354764       -0.5514610843
 C         -4.2998043972        0.5018337138       -0.3237614262
 C         -4.6686655013       -0.7731549964       -0.5283551238
 C         -6.0362846253       -1.3935993272       -0.3881564884
 C         -6.8769675429       -0.9909401630        0.8312138641
 C         -6.0725535379       -0.6924544323        2.1048375495
 H         -6.4950255772       -1.2645857264        2.9330456503
 H         -5.0382303192       -1.0177493927        1.9794286513
 C         -6.0987199910        0.7875446164        2.4944289311
 H         -5.8460708502        0.8758430230        3.5538126112
 H         -7.1161275982        1.1644447081        2.3688606760
 C         -5.1331079198        1.6854590210        1.7222686959
 H         -5.3317303246        2.7201263290        2.0117329941
 H         -4.1045216376        1.4615580471        2.0174054409
 C         -5.2122109602        1.5785019200        0.1905465342
 H         -6.2363103421        1.4298552172       -0.1424418775
 H         -4.8408987497        2.5162426549       -0.2311659318
 H         -7.5685814796       -1.8134488851        1.0217221761
 H         -7.4851021262       -0.1219429135        0.5839041577
 H         -6.6020728108       -1.1788059909       -1.2994922091
 H         -5.8566699176       -2.4713655169       -0.3689946576
 O         -3.7850220855       -1.7217397958       -0.9512977546
 C         -2.4576329511       -1.4202621418       -1.1886660453
 O         -1.7766482512       -2.3927630448       -1.5750408489
 H          1.5303600929       -1.4953030956       -0.6737909021
 C          1.3264040201       -0.7854056082        0.1136827345
 C          0.2862587561        0.1229462718       -0.0181259020
 C          0.0456148093        1.0200399599        1.0181941948
 C          0.8238434613        0.9952853624        2.1605377089
 C          1.8707795490        0.0977321846        2.2820249868
 C          2.1254117243       -0.7956054847        1.2493967189
 N          3.1941526238       -1.7112733100        1.3285305006
 S          4.3761456562       -1.6318395958        0.1443406267
 O          3.8071608007       -1.9473196169       -1.1399669304
 O          5.4365448276       -2.4958925057        0.6115802043
 C          4.9195938409        0.0677519912        0.1826333648
 C          6.0370931383        0.3929512655        0.9267702116
 C          6.4205706555        1.7212921226        1.0168150523
 C          5.6753835467        2.6988847216        0.3750086925
 C          4.5536984199        2.3566466173       -0.3645757617
 C          4.1689780673        1.0288980513       -0.4656496491
 H          3.3034456966        0.7309171680       -1.0347147731
 H          3.9718412010        3.1160481714       -0.8616808667
 H          5.9701719845        3.7337007010        0.4495976791
 H          7.2943200037        1.9896969202        1.5885319878
 H          6.5866014641       -0.4003845010        1.4073784386
 H          3.6332377680       -1.7422330221        2.2383978810
 H          2.4833020748        0.0845334205        3.1710556523
 H          0.6205541858        1.6900112962        2.9612081338
 H         -0.7617478952        1.7291397989        0.9203959541
 C         -0.5428954075        0.1282327055       -1.2804249680
 H         -0.2225746851       -0.7295195350       -1.8880751862
 C         -0.2811794051        1.3947996167       -2.0736274662
 C          0.9542596218        1.4748441363       -2.9169759503
 C         -0.3920286222        1.3584279075       -3.5663079643
 H         -0.7992671562        2.2200130926       -4.0735251428
 H         -0.6569856082        0.4164692122       -4.0252593619
 H          1.4751450206        2.4176494119       -2.9836051647
 H          1.6013242718        0.6094320990       -2.9445639793
 H         -0.6132240057        2.2936238668       -1.5715504852
 O         -2.5651800679        2.1036188761       -0.3561387613
