  62
        -98.93674648
 C          2.4198245029        1.1589997419        0.1376673583
 C          2.4639010105       -0.0574846379       -0.5876441621
 C          3.8090723910       -0.5538339499       -0.9231617452
 C          4.8913722041        0.1432096083       -0.5350766745
 C          6.3134378861       -0.2794013624       -0.7614981541
 C          6.8397329377       -1.1091403601        0.4181629273
 C          5.9039153629       -2.2401517023        0.8450646209
 H          6.3915922466       -2.7734525900        1.6639634803
 H          4.9829740688       -1.8097835403        1.2453632931
 C          5.5535428693       -3.2313593931       -0.2734850339
 H          6.2752938758       -3.1428868295       -1.0862833555
 H          5.6321004553       -4.2465040526        0.1212050977
 C          4.1383762558       -3.0806658232       -0.8348685101
 H          3.9228240723       -3.9557537749       -1.4536809261
 H          3.4154328985       -3.0741196985       -0.0150197391
 C          3.8931575591       -1.8378033683       -1.6996525097
 H          4.6587623291       -1.7706694839       -2.4753170522
 H          2.9201578187       -1.9583648171       -2.1851474655
 H          6.9834195843       -0.4434227230        1.2723413345
 H          7.8113823013       -1.5228888082        0.1424896043
 H          6.3728431693       -0.8574265523       -1.6815590694
 H          6.9263421867        0.6174596316       -0.8657049981
 O          4.8097157399        1.3026488718        0.1669159085
 C          3.5816585628        1.8256816926        0.5357075318
 O          3.6548681680        2.8711842768        1.2119970302
 H         -1.3690268496        0.9161538531       -0.3377573446
 C         -1.0401961020        0.4174968501        0.5584318995
 C          0.1844103444        0.7216839863        1.1291753515
 C          0.5810250492        0.0254409741        2.2686236176
 C         -0.2273796189       -0.9500995739        2.8180071966
 C         -1.4575730148       -1.2398476469        2.2542620825
 C         -1.8593123752       -0.5558542195        1.1135509650
 N         -3.0875510337       -0.8486772916        0.4994750010
 S         -3.9444593080        0.4059986155       -0.2319778020
 O         -3.4494941523        0.6063496047       -1.5703726512
 O         -3.9478844439        1.5697197242        0.6271291576
 C         -5.5735415072       -0.3174653865       -0.3001887098
 C         -6.5098822036        0.0184724957        0.6591545955
 C         -7.7625190894       -0.5730925040        0.6094025277
 C         -8.0547213231       -1.4877541149       -0.3910669084
 C         -7.1046293232       -1.8147350500       -1.3474421086
 C         -5.8509646793       -1.2259219408       -1.3045045599
 H         -5.0842009074       -1.4416224218       -2.0304075042
 H         -7.3361498115       -2.5242962349       -2.1253937039
 H         -9.0299986915       -1.9468389338       -0.4277026927
 H         -8.5043247286       -0.3186382597        1.3491843627
 H         -6.2403003700        0.7404353770        1.4131678685
 H         -3.6858504043       -1.4316078907        1.0683993519
 H         -2.0932513445       -1.9985276070        2.6851823173
 H          0.0971803880       -1.4841557079        3.6986793055
 H          1.5403587276        0.2577456513        2.7125736608
 C          1.1044090499        1.7808960750        0.5739117967
 H          1.3702533315        2.4588776409        1.4029359282
 C          0.4399620826        2.6417960158       -0.4898818508
 C          1.2525226297        3.4000615053       -1.4952725436
 C          0.4027840941        2.2473406093       -1.9342193251
 H         -0.4994814315        2.4493669358       -2.4938524086
 H          0.8862255004        1.3242957085       -2.2124848881
 H          0.9412268267        4.4004168172       -1.7558532706
 H          2.3244949955        3.2666941975       -1.4738797945
 H         -0.4415926502        3.1478400402       -0.1047446340
 O          1.4470366820       -0.7073112239       -0.9424182159
