  62
        -98.94119949
 C         -2.6613706394       -0.3109064890       -0.5147372496
 C         -3.0215799492        0.6156205314        0.5000885701
 C         -2.7079698587        2.0230408513        0.2432815897
 C         -2.1386096886        2.3731929707       -0.9236682804
 C         -1.7262118981        3.7609849505       -1.3300379808
 C         -0.3396267080        4.1546283702       -0.8012383208
 C         -0.2849521580        4.4762254606        0.6928936591
 H          0.6714018922        4.9685848404        0.8797562790
 H         -1.0741485678        5.1865818410        0.9429238988
 C         -0.3869019984        3.2459721509        1.6060070794
 H         -0.1546168087        2.3435951007        1.0328880397
 H          0.3697520716        3.3119148509        2.3921396494
 C         -1.7402418185        3.0756990916        2.2981485894
 H         -1.7110253288        2.1455839417        2.8720864697
 H         -1.8971199883        3.8999103018        2.9981327392
 C         -2.9422244585        3.0094425817        1.3467261994
 H         -3.8109555186        2.6714558921        1.9171586094
 H         -3.1529916981        3.9967621716        0.9366696891
 H          0.3602483817        3.3429612099       -1.0173597506
 H         -0.0145806077        5.0378957299       -1.3561424511
 H         -1.6972130881        3.7724305702       -2.4216348608
 H         -2.4685775279        4.4841671608       -0.9917242010
 O         -1.8689979288        1.4689473004       -1.8979331101
 C         -2.0542732692        0.1085583605       -1.6982593697
 O         -1.6481914694       -0.5851431499       -2.6546562195
 O         -3.5756637693        0.2720938819        1.5787074502
 C         -2.8299260299       -1.7805324388       -0.1579410192
 C         -1.5634259001       -2.2163322690        0.5424397310
 C         -1.5730806403       -2.7168277386        1.8381378911
 C         -0.3865655404       -2.9804806488        2.5024032813
 C          0.8318713697       -2.7276841294        1.8971784812
 C          0.8474408599       -2.2428130097        0.5977019211
 C         -0.3385256400       -2.0157020096       -0.0782450090
 H         -0.3085965798       -1.6230017899       -1.0846638291
 N          2.0912373300       -1.8855912003       -0.0002159690
 S          2.4586869105       -0.2793651503        0.4175676506
 O          2.4518600305       -0.1847526599        1.8550210906
 O          1.5896363809        0.6369262498       -0.2910956697
 C          4.1276078506       -0.1441634810       -0.1939275994
 C          5.1551941504       -0.6549337711        0.5753290008
 C          6.4500309705       -0.5982306817        0.0855172709
 C          6.6938465607       -0.0372400121       -1.1594096293
 C          5.6519410209        0.4715898980       -1.9196909495
 C          4.3540792908        0.4165506886       -1.4356188695
 H          3.5140553910        0.8052552887       -1.9896623297
 H          5.8433356411        0.9090377777       -2.8863966296
 H          7.7022318307        0.0055442475       -1.5396785693
 H          7.2631654603       -0.9912092617        0.6741365010
 H          4.9168746302       -1.0738482608        1.5386731709
 H          2.0123936801       -1.9042432906       -1.0108073990
 H          1.7623019196       -2.8747103295        2.4199364913
 H         -0.4121542306       -3.3598852485        3.5126166114
 H         -2.5184868004       -2.8648086182        2.3391303711
 H         -3.6478998700       -1.8170482983        0.5743394908
 C         -3.1749568501       -2.6940518890       -1.3139883190
 C         -3.8323113806       -4.0094889888       -1.0251429986
 C         -4.6124070702       -2.9086079387       -1.6770672790
 H         -4.8682766102       -3.0009344389       -2.7216206889
 H         -5.3579848201       -2.3936746383       -1.0890611991
 H         -3.5525986608       -4.8643715590       -1.6210615783
 H         -4.0521626007       -4.2436429684        0.0053235215
 H         -2.4602264001       -2.6542864195       -2.1249956289
