  62
        -98.94086948
 C          1.8483632179        0.6816836824        0.5598232748
 C          2.3229856192       -0.0455044333       -0.5602765112
 C          3.4778253594       -0.9201884475       -0.3057420453
 C          3.9610815072       -1.0546969070        0.9414379973
 C          5.1234110367       -1.9152137454        1.3560105405
 C          6.4915804189       -1.2477509848        1.1591748822
 C          6.9533968525       -1.1252124380       -0.2935832531
 H          6.8871036570       -2.0999922109       -0.7779363951
 H          8.0081300214       -0.8439539508       -0.2710247526
 C          6.1833475803       -0.0848202458       -1.1190223277
 H          6.8896303301        0.5233912624       -1.6884757225
 H          5.6497868039        0.5912905110       -0.4469047637
 C          5.1887817145       -0.6776640920       -2.1174148801
 H          5.7275557035       -1.2513882716       -2.8747118999
 H          4.6769389050        0.1459824588       -2.6218167408
 C          4.1230007750       -1.5827212923       -1.4852117371
 H          4.5634106904       -2.5361666565       -1.1940996745
 H          3.3436590836       -1.7690428508       -2.2284881286
 H          7.2267156310       -1.8462110075        1.7021804874
 H          6.4662768875       -0.2566968963        1.6184162791
 H          5.0951240439       -2.8588679907        0.8103550797
 H          4.9919848559       -2.1247633361        2.4198984596
 O          3.4106741625       -0.4159827135        2.0087622877
 C          2.3610559976        0.4737317399        1.8426870053
 O          1.9646142225        0.9970534838        2.9039761919
 O          1.8253945798        0.0218892484       -1.7123580582
 C          0.7033126265        1.6731107069        0.4417197237
 C         -0.4266922434        1.0646285112       -0.3518409848
 C         -0.9137072937        1.5956801349       -1.5380415888
 C         -1.9516800375        0.9728263045       -2.2096741956
 C         -2.5306625636       -0.1795345292       -1.7123949213
 C         -2.0587217453       -0.7123407807       -0.5189681580
 C         -1.0217519483       -0.0855301247        0.1538077238
 H         -0.6487694350       -0.5056501920        1.0805087417
 N         -2.6515430581       -1.8746768668        0.0034595678
 S         -4.3220912481       -1.9694922079        0.0029072685
 O         -4.6518505825       -2.8417608670        1.1085813410
 O         -4.7848916854       -2.3975173797       -1.2936880090
 C         -4.8858242161       -0.3073753893        0.3258008248
 C         -4.5124604620        0.2855016423        1.5157783654
 C         -4.9093439153        1.5882034655        1.7693063573
 C         -5.6688972317        2.2728609145        0.8327107646
 C         -6.0406578903        1.6618539531       -0.3544955205
 C         -5.6450482376        0.3593326362       -0.6139482084
 H         -5.9098486026       -0.1527513371       -1.5245729811
 H         -6.6329421016        2.1958975028       -1.0798035927
 H         -5.9725401621        3.2884528713        1.0317583747
 H         -4.6213984705        2.0644171511        2.6928889064
 H         -3.9258324162       -0.2753241869        2.2259910065
 H         -2.2656823966       -2.1730958106        0.8866635855
 H         -3.3266219863       -0.6852502118       -2.2345515590
 H         -2.3108745980        1.3875809209       -3.1390063927
 H         -0.4611152194        2.4803943469       -1.9538509794
 H          0.3456848901        1.8146850416        1.4750328285
 C          1.1236559276        3.0467579316       -0.0600437596
 C          2.5003276187        3.5750143363        0.2097610192
 C          2.0903251490        3.2319400428       -1.1892559456
 H          1.9172737945        4.0413547439       -1.8834473331
 H          2.5020922470        2.3467769325       -1.6467123845
 H          2.6081162203        4.6155165264        0.4770241776
 H          3.1965318798        2.9215182972        0.7159054303
 H          0.3137900627        3.7661478646        0.0103381364
