  62
        -98.93946990
 C          1.9114325974        0.8641579458        0.2476993985
 C          2.2983904546       -0.1545529148        1.1536582340
 C          2.7258349417       -1.4272701196        0.5600539053
 C          2.6608859894       -1.5815072210       -0.7746555618
 C          3.1076457066       -2.8052536864       -1.5199405450
 C          4.5825765123       -2.6984992027       -1.9330328544
 C          5.5143332555       -2.2793400690       -0.7959460391
 H          6.5301447032       -2.2638777742       -1.1965403411
 H          5.2716853094       -1.2574809539       -0.4952823428
 C          5.4638228902       -3.1941759637        0.4356454804
 H          5.0125463427       -4.1503124138        0.1685253190
 H          6.4852976865       -3.3969248403        0.7638424033
 C          4.7205464923       -2.6027348226        1.6348931719
 H          5.1077478731       -1.6036047212        1.8505858609
 H          4.9275280369       -3.2287989823        2.5068680925
 C          3.1958958173       -2.5071700480        1.4935529669
 H          2.7905111511       -3.4762805186        1.1944853129
 H          2.7837462384       -2.2529170514        2.4748336020
 H          4.9001676770       -3.6648999227       -2.3284889735
 H          4.6645058984       -1.9592269096       -2.7330132457
 H          2.9563403906       -3.6803586709       -0.8907078171
 H          2.4922143922       -2.9036494965       -2.4157565285
 O          2.2181302082       -0.6079606653       -1.6087040465
 C          1.8293869586        0.6350995547       -1.1265142786
 O          1.4451199160        1.4193919401       -2.0140987858
 H         -0.6859122103        0.6573295036        0.5759052329
 C         -0.8772989366        1.6521235598        0.1975388505
 C          0.1365628655        2.6028337992        0.2336518561
 C         -0.1299289204        3.8747297265       -0.2541339135
 C         -1.3798485587        4.1783761216       -0.7669596938
 C         -2.3815121671        3.2282394285       -0.8080570896
 C         -2.1205158488        1.9454733427       -0.3340289972
 N         -3.1027743650        0.9460992317       -0.4240619725
 S         -2.9984907357       -0.4626260266        0.4833728055
 O         -2.8853040269       -0.1540926048        1.8928974546
 O         -1.9693637841       -1.3065399231       -0.0730052755
 C         -4.6021140420       -1.1622821537        0.1407636715
 C         -4.8012000080       -1.7904321140       -1.0743405187
 C         -6.0516363792       -2.3142663100       -1.3610952240
 C         -7.0770099286       -2.2020271477       -0.4335018018
 C         -6.8618953280       -1.5709371003        0.7822658379
 C         -5.6137376881       -1.0434589302        1.0747324774
 H         -5.3966551352       -0.5516316663        2.0091957294
 H         -7.6595736731       -1.4879706180        1.5026382863
 H         -8.0487640643       -2.6118585814       -0.6590373393
 H         -6.2213440052       -2.8075056034       -2.3045082619
 H         -3.9714837528       -1.8611442006       -1.7585800280
 H         -4.0451842960        1.3039212340       -0.4852525819
 H         -3.3517920695        3.4651954659       -1.2164070261
 H         -1.5741474960        5.1713058848       -1.1433581096
 H          0.6425862802        4.6257346823       -0.2495158379
 C          1.4598158087        2.1902531498        0.8308819271
 H          1.2824201999        1.9674398451        1.8980754329
 C          2.5158832976        3.2857842830        0.7881699911
 C          3.9701914955        2.9577039438        0.6333517447
 C          3.2361746927        3.6469550054       -0.4752803000
 H          3.4538743450        4.6884075658       -0.6617869119
 H          2.9930329607        3.0825469389       -1.3615646806
 H          4.6868184947        3.5226974849        1.2105736566
 H          4.2374868402        1.9191132249        0.5005296647
 H          2.2833922251        4.1012915279        1.4661764183
 O          2.2860203839       -0.0040099001        2.4065501029
