  62
        -98.94379282
 C         -1.9001359979       -1.2498774462        0.3665595707
 C         -1.9239312689       -0.2123207186       -0.5970087856
 C         -3.2575071208        0.2891590897       -0.9606456999
 C         -4.3480351873       -0.2656843407       -0.4011037028
 C         -5.7582092120        0.1907443563       -0.6361106880
 C         -6.1771934749        1.2467059855        0.3966064266
 C         -5.1654500814        2.3800836529        0.5679408433
 H         -5.5798149738        3.0778619607        1.2989898200
 H         -4.2452828839        1.9763492811        0.9968643967
 C         -4.8309580833        3.1346948043       -0.7263932818
 H         -5.6015945042        2.9457621756       -1.4747125418
 H         -4.8379963355        4.2066701690       -0.5177864144
 C         -3.4588437577        2.8051586170       -1.3173718132
 H         -3.2379540801        3.5429254267       -2.0934349076
 H         -2.6925255137        2.9060605590       -0.5442283560
 C         -3.3232427803        1.4157337787       -1.9529308844
 H         -2.3748074657        1.3923939945       -2.4971953991
 H         -4.1336800274        1.2568798214       -2.6670174740
 H         -7.1416003246        1.6603747474        0.0962776198
 H         -6.3056134251        0.7540280041        1.3633401978
 H         -6.4194762207       -0.6729072516       -0.5477889773
 H         -5.8411629529        0.5980196697       -1.6417964841
 O         -4.2855752423       -1.2851317537        0.4937004512
 C         -3.0645467421       -1.7901109870        0.9112643840
 O         -3.1460813122       -2.7043165885        1.7572281079
 O         -0.8910728301        0.2745369218       -1.1223649878
 C         -0.5751907709       -1.8218089040        0.8320511137
 C          0.3175086123       -0.7480726199        1.4076031609
 C         -0.2320994962        0.3377085182        2.0822161258
 C          0.5712678395        1.3397917494        2.5934925001
 C          1.9472014783        1.2743627242        2.4608873929
 C          2.5088902297        0.1810511376        1.8186084837
 C          1.6992032591       -0.8202559992        1.2969435435
 H          2.1552115489       -1.6592203835        0.7934765569
 N          3.9162040670        0.1189775262        1.6856473031
 S          4.5676076742        1.1355476724        0.5199660726
 O          5.9968904355        0.9257617800        0.5639314416
 O          4.1051388507        2.4761408912        0.7670003124
 C          3.9109391256        0.5050346061       -1.0131421426
 C          2.5971541730        0.7788194166       -1.3361521216
 C          2.0489601970        0.1932536927       -2.4665128629
 C          2.8224694385       -0.6466189043       -3.2526563580
 C          4.1443831853       -0.9047939650       -2.9199005109
 C          4.6932884856       -0.3334815464       -1.7836813428
 H          5.7124714956       -0.5137066209       -1.4814211311
 H          4.7428479923       -1.5562244584       -3.5365358886
 H          2.3897786247       -1.1046872953       -4.1285579920
 H          1.0120840013        0.3806737512       -2.6959478280
 H          2.0113947537        1.4322786332       -0.7102866019
 H          4.2578447044       -0.8185935217        1.5208670423
 H          2.5886824400        2.0565758784        2.8320944109
 H          0.1217919947        2.1811560780        3.0995561932
 H         -1.3066010762        0.3960641324        2.1921522811
 H         -0.8171009099       -2.5325507745        1.6365649126
 C          0.0858591981       -2.5776157912       -0.3056424288
 C          0.8766808548       -3.8230328219       -0.0417362609
 C         -0.4658299161       -3.9129252502       -0.7012691855
 H         -0.5128980196       -4.1629833308       -1.7502768912
 H         -1.2957606750       -4.2946002485       -0.1239037824
 H          1.7532089852       -4.0143271147       -0.6428414731
 H          0.9574872495       -4.1612406507        0.9806318783
 H          0.4203258547       -1.9187767132       -1.0989272479
