  62
        -98.93383710
 C         -2.6751301102       -1.0997897905       -0.1044512098
 C         -2.4122408604       -0.0571113304       -1.0251085297
 C         -3.0183398904        1.2494167595       -0.7181677894
 C         -3.7471712802        1.3960072093        0.4021250508
 C         -4.3259667302        2.6872733792        0.9055054112
 C         -3.2149248301        3.5371917792        1.5554979210
 C         -2.9089214303        4.8439043993        0.8232789012
 H         -3.7012756103        5.5645294892        1.0365621215
 H         -1.9803407802        5.2399274293        1.2400924810
 C         -2.7670995906        4.7396498395       -0.6981358189
 H         -3.7561885707        4.7066024696       -1.1576101487
 H         -2.2964722708        5.6651169096       -1.0366280588
 C         -1.9457164707        3.5530135597       -1.2188416093
 H         -1.2336424005        3.2121148396       -0.4655384095
 H         -1.3579093909        3.8971983999       -2.0725587193
 C         -2.7870235007        2.3584103897       -1.7072993292
 H         -3.7489282408        2.7185912397       -2.0822896890
 H         -2.2631880409        1.8846335399       -2.5425515994
 H         -3.4941520998        3.7779154690        2.5824540611
 H         -2.3070414200        2.9314769992        1.6125168407
 H         -4.7918797504        3.2281502093        0.0849139313
 H         -5.0913980600        2.4366105090        1.6400793513
 O         -3.9730154299        0.3754392892        1.2687251807
 C         -3.4498872499       -0.8841054808        1.0400634904
 O         -3.7446852697       -1.7239063309        1.9137877003
 H          0.0327902596       -1.1304665402       -1.1271258604
 C          0.2830357798       -1.7662086803       -0.2902633106
 C         -0.7024239000       -2.5596208605        0.2796394695
 C         -0.3638238597       -3.3589879806        1.3646904693
 C          0.9271540504       -3.3598343306        1.8645092690
 C          1.9033534403       -2.5582457805        1.3000091389
 C          1.5712471400       -1.7502061903        0.2215355291
 N          2.5547270798       -0.9027734902       -0.3454149210
 S          3.0036629199        0.4267926297        0.6001444991
 O          3.0556200403        0.0250500795        1.9827227590
 O          2.1527577798        1.5578725097        0.2901680095
 C          4.6513642298        0.7267889599       -0.0080542012
 C          4.8718220695        1.7356133500       -0.9247724311
 C          6.1544896594        1.9279792402       -1.4142570114
 C          7.1875274895        1.1098695902       -0.9834308817
 C          6.9499120098        0.1001034300       -0.0625395218
 C          5.6702898499       -0.0962675501        0.4306957484
 H          5.4405485701       -0.8627464903        1.1520843084
 H          7.7560810399       -0.5331844700        0.2710679979
 H          8.1843493994        1.2611824203       -1.3665030919
 H          6.3418635092        2.7133466803       -2.1288153013
 H          4.0399839694        2.3516083800       -1.2266674108
 H          2.2418554796       -0.5382035901       -1.2370554309
 H          2.9039773403       -2.5323742705        1.6980200387
 H          1.1737055707       -3.9861378008        2.7084907188
 H         -1.1267482595       -3.9661388008        1.8302285894
 C         -2.1182350401       -2.5101942405       -0.2444738402
 H         -2.7381873399       -3.1388440606        0.4086424299
 C         -2.2013716304       -3.0587900003       -1.6552636102
 C         -2.1853252404       -4.5428512202       -1.8576612605
 C         -3.4461831505       -3.7675053603       -2.0926592201
 H         -3.7881025807       -3.6273293901       -3.1070093700
 H         -4.2457058303       -3.8623053004       -1.3720758099
 H         -2.1317100401       -5.1671480704       -0.9786364906
 H         -1.6586679805       -4.9392686701       -2.7119854507
 H         -1.6973988806       -2.4432735901       -2.3880757703
 O         -1.7049577607       -0.1811830702       -2.0624498699
