  62
        -98.92859234
 C          1.2889660002        1.1148569995        0.6199908515
 C          2.1107678104        0.9710911502       -0.5242917085
 C          3.3131400802        0.1337602998       -0.3544448688
 C          3.5365797199       -0.4717772110        0.8248823908
 C          4.6720998997       -1.4081918914        1.1266853103
 C          4.3939097696       -2.7945990609        0.5117388293
 C          5.3643103697       -3.1968943003       -0.5989466508
 H          6.3163516496       -3.4890553208       -0.1507037008
 H          4.9491074396       -4.0778068499       -1.0933035514
 C          5.6525441001       -2.1234959697       -1.6529425400
 H          6.3837056501       -1.4133284801       -1.2635952794
 H          6.1278427501       -2.6264842492       -2.4978836602
 C          4.4351517303       -1.3431252191       -2.1656801997
 H          4.5610438505       -1.1849470184       -3.2388503195
 H          3.5218161102       -1.9245509590       -2.0371305802
 C          4.2491978304        0.0463806905       -1.5282946687
 H          3.8185396107        0.7165735111       -2.2784832883
 H          5.2255060905        0.4516901701       -1.2470247083
 H          4.4359127793       -3.5547857115        1.2932400788
 H          3.3732163397       -2.7991497005        0.1234311192
 H          4.7512742295       -1.4832415122        2.2114285603
 H          5.6007804499       -0.9963868713        0.7375827508
 O          2.6895545898       -0.3602796016        1.8809577707
 C          1.5515984699        0.4270930287        1.8079121411
 O          0.8632465797        0.4279459181        2.8458537809
 O          1.8741161507        1.5131525710       -1.6343317081
 C          0.0289624004        1.9638635298        0.6023639018
 C         -0.7864776795        1.6455244407       -0.6250424685
 C         -1.0145049691        2.5434486315       -1.6588171779
 C         -1.7630252490        2.1666078124       -2.7602230883
 C         -2.3267835092        0.9056475725       -2.8359598493
 C         -2.1157397995        0.0045845718       -1.8010261099
 C         -1.3360788997        0.3723144809       -0.7168064395
 H         -1.1354841999       -0.3441857797        0.0668139201
 N         -2.7088999998       -1.2854767481       -1.7956067809
 S         -4.0992800199       -1.3606526385       -0.8432375612
 O         -4.6165852101       -2.6996737583       -1.0151561622
 O         -5.0102020197       -0.2915430281       -1.1970377206
 C         -3.5116564302       -1.1240789298        0.8156002291
 C         -2.9043794305       -2.1802644603        1.4649564885
 C         -2.3995181307       -1.9782299013        2.7395701987
 C         -2.5048907306       -0.7309196717        3.3361364195
 C         -3.1259213103        0.3162542889        2.6728064502
 C         -3.6359590901        0.1210851698        1.3996451999
 H         -4.1198630798        0.9093538603        0.8455413104
 H         -3.2021941502        1.2849708486        3.1401411008
 H         -2.0903276007       -0.5702669024        4.3185036497
 H         -1.9151119209       -2.7879896817        3.2614491782
 H         -2.8390209206       -3.1321192800        0.9633572178
 H         -2.9483523396       -1.6109911675       -2.7235662911
 H         -2.9272607091        0.6174123532       -3.6863293296
 H         -1.9160406387        2.8671521129       -3.5673658079
 H         -0.5779562490        3.5278650514       -1.6176346572
 H         -0.5491362398        1.6249393593        1.4779803915
 C          0.2710112606        3.4532867796        0.7946606829
 C          1.3849141205        3.9385894988        1.6725572434
 C          1.4394538508        4.1728429698        0.1941959836
 H          1.2868080311        5.1786779701       -0.1694295157
 H          2.1358040808        3.5983430101       -0.3951553267
 H          1.1985233906        4.7801069084        2.3226409540
 H          2.0435289803        3.1951285484        2.0977649730
 H         -0.6616524493        4.0061128897        0.8533636331
