  62
        -98.94544711
 C         -2.5976356138        0.0638216167        0.5117262574
 C         -2.4979572229        0.7862978238       -0.7019040647
 C         -2.0552160743        2.1794230118       -0.5798007294
 C         -1.7543941795        2.6818797928        0.6311178295
 C         -1.2465333770        4.0698900634        0.9113426462
 C          0.2666430766        4.2190795971        0.6973149319
 C          0.7168832202        4.2748391145       -0.7635720020
 H          0.1103556594        5.0019920292       -1.3051208724
 H          1.7454766568        4.6410402568       -0.7643605246
 C          0.6789146497        2.9220852604       -1.4882200389
 H          0.6602852915        2.1153821972       -0.7514383000
 H          1.5959847764        2.7990962965       -2.0702106684
 C         -0.4889228085        2.7481720365       -2.4595951259
 H         -0.4554746699        1.7288652223       -2.8530460124
 H         -0.3730565616        3.4396896496       -3.2979916661
 C         -1.8744515308        2.9690712061       -1.8413349262
 H         -2.0372596172        4.0296285812       -1.6502793599
 H         -2.6243021006        2.6214175402       -2.5567198816
 H          0.7719864489        3.3884000930        1.1972036076
 H          0.5754484198        5.1452795765        1.1882046230
 H         -1.4703095720        4.2777608243        1.9599225158
 H         -1.7791847269        4.7919663522        0.2914906937
 O         -1.8922257611        1.9637953779        1.7784048689
 C         -2.2804608757        0.6349916597        1.7428868983
 O         -2.3174844742        0.0787437827        2.8622252068
 O         -2.7575043474        0.2939665740       -1.8312035588
 C         -2.9002203718       -1.4233842493        0.4760726136
 C         -1.8114951504       -2.1148123616       -0.3135076462
 C         -2.0425255126       -3.1481873457       -1.2111511368
 C         -0.9873640163       -3.7121859276       -1.9093257697
 C          0.3069475547       -3.2578987064       -1.7375253340
 C          0.5483214899       -2.2216878811       -0.8401340814
 C         -0.5050527931       -1.6828667087       -0.1233087730
 H         -0.3073433000       -0.8950099700        0.5882371020
 N          1.8383355924       -1.6862849763       -0.6883601435
 S          2.2593254554       -0.8344018930        0.7016425570
 O          2.0782467598       -1.6687205689        1.8708797669
 O          1.5876622921        0.4398174227        0.7095124779
 C          3.9958101070       -0.5888469556        0.3851749718
 C          4.9193282088       -1.4704512223        0.9141118856
 C          6.2635311178       -1.2811277064        0.6334578347
 C          6.6584457283       -0.2213403789       -0.1690883861
 C          5.7199769896        0.6567495129       -0.6908699070
 C          4.3747819926        0.4737030158       -0.4130122690
 H          3.6086680491        1.1336650581       -0.7862568201
 H          6.0306172257        1.4819702159       -1.3110216873
 H          7.7048319013       -0.0761949316       -0.3862475341
 H          6.9958269377       -1.9589999894        1.0413375395
 H          4.5663897461       -2.2731185743        1.5415724222
 H          2.5734540003       -2.3136927489       -0.9828617338
 H          1.1223230427       -3.6885566836       -2.2980373808
 H         -1.1786564682       -4.5150620887       -2.6051645510
 H         -3.0465940998       -3.5066729856       -1.3694067857
 H         -2.8405626713       -1.7733862838        1.5181988323
 C         -4.2931504878       -1.6894491071       -0.0537140107
 C         -5.0627702475       -2.8880748827        0.4115369363
 C         -5.4615418807       -1.5178844012        0.8682102344
 H         -6.3689130548       -1.0842519827        0.4758319112
 H         -5.2476254308       -1.2341982795        1.8888388494
 H         -5.7020916288       -3.3962579533       -0.2945079953
 H         -4.5876626099       -3.5405934083        1.1287418175
 H         -4.4133570073       -1.3669610420       -1.0812027056
