  62
        -98.93883151
 C         -1.1095799881       -1.3570652365        0.2139981749
 C         -1.3663421097       -0.0556243556        0.7069504896
 C         -2.4049809953        0.7188896517        0.0072374009
 C         -3.0159624553        0.1749388964       -1.0594156072
 C         -4.1337685046        0.7681088434       -1.8714952866
 C         -5.4981118496        0.2962523515       -1.3401296228
 C         -6.0839975635        1.1531448001       -0.2185437731
 H         -6.4048046105        2.1122110701       -0.6307019039
 H         -6.9760571866        0.6406208344        0.1490500099
 C         -5.1470103728        1.4172251907        0.9631898557
 H         -4.6187221715        0.4991113899        1.2266291097
 H         -5.7627358279        1.6928867194        1.8216729087
 C         -4.1377775179        2.5432959611        0.6942340987
 H         -4.1680479949        3.2576390803        1.5193508148
 H         -4.4451642116        3.0880409514       -0.1982038564
 C         -2.6748863835        2.0959701221        0.5478004657
 H         -2.1395778791        2.8195147382       -0.0744062757
 H         -2.1893247638        2.1065336634        1.5281365090
 H         -5.3851371693       -0.7348983783       -0.9954754766
 H         -6.2122537443        0.2870475771       -2.1660927619
 H         -4.0100383937        0.3963638602       -2.8906607132
 H         -4.0698741987        1.8519889941       -1.8823105753
 O         -2.7125454403       -1.0675703986       -1.5240377289
 C         -1.7529884273       -1.8599249506       -0.9167169025
 O         -1.5788454256       -2.9617691880       -1.4701687596
 O         -0.7588720941        0.4369554475        1.6955605709
 C         -0.0321991552       -2.1859451817        0.8937820729
 C          1.1642789538       -2.2336661358       -0.0240490507
 C          1.5807886562       -3.3767934032       -0.6925429123
 C          2.6594876840       -3.3223122355       -1.5584498729
 C          3.3514077737       -2.1418489484       -1.7570084210
 C          2.9449696421       -0.9923908976       -1.0874200232
 C          1.8533628312       -1.0450372377       -0.2372656897
 H          1.5320936057       -0.1498627536        0.2756670405
 N          3.6142297429        0.2275384825       -1.2689767737
 S          3.8948605763        1.2113044202        0.0582374233
 O          5.0248461993        2.0278071378       -0.3365052793
 O          4.0707547641        0.4347679501        1.2634046638
 C          2.4649991284        2.2616391384        0.1826248159
 C          1.8691723682        2.4592012527        1.4114075771
 C          0.8058636250        3.3419017270        1.5066299681
 C          0.3611604895        4.0090295773        0.3766521955
 C          0.9652880345        3.7934230187       -0.8531047101
 C          2.0306875097        2.9142799853       -0.9541671221
 H          2.5309710196        2.7268307249       -1.8898211716
 H          0.6109192523        4.3097581461       -1.7310678832
 H         -0.4612746055        4.7027506824        0.4570638556
 H          0.3272080622        3.4977939883        2.4596603163
 H          2.2381517312        1.9133519993        2.2650929668
 H          4.4218851069        0.1816617208       -1.8735699257
 H          4.1979404597       -2.1051869509       -2.4260448253
 H          2.9705702327       -4.2148585994       -2.0800975347
 H          1.0528958150       -4.3046363825       -0.5478397288
 H          0.2568196906       -1.6131204787        1.7866400313
 C         -0.5376767379       -3.5435527590        1.3286431156
 C          0.2324582883       -4.3201949685        2.3532606986
 C         -1.0873646663       -3.7086135229        2.7125575845
 H         -1.9364676431       -4.3601276944        2.8551088721
 H         -1.0900753840       -2.8410696226        3.3563005584
 H          0.2909992830       -5.3931655792        2.2520891033
 H          1.1277429033       -3.8663490128        2.7514345005
 H         -1.0251785535       -4.0928853375        0.5324577250
