  62
        -98.93184945
 C         -2.2177669054       -0.6114698789       -0.4466808143
 C         -3.3872651060       -0.8749679867        0.3135250445
 C         -4.2673773073        0.2683802233        0.5832090194
 C         -3.9243889446        1.4880118979        0.1322023898
 C         -4.6673644657        2.7779065724        0.3601118033
 C         -6.0692912182        2.8785825436       -0.2712110772
 C         -7.2153124498        2.4787562452        0.6663761139
 H         -6.8848801004        2.6035580742        1.6982820529
 H         -8.0476744935        3.1697984278        0.5183433567
 C         -7.7703440854        1.0641352134        0.4752714938
 H         -8.3886215542        0.8273548632        1.3439025891
 H         -8.4195996972        1.0513267068       -0.4031971563
 C         -6.7304954731       -0.0415647996        0.2918641043
 H         -7.2396167808       -1.0044003564        0.3685898252
 H         -6.3155605330        0.0079493656       -0.7176713735
 C         -5.5615245070        0.0011860980        1.2951936092
 H         -5.4537222273       -0.9694802212        1.7833218056
 H         -5.7393668480        0.7532559863        2.0624732603
 H         -6.2121827071        3.9218492258       -0.5571700175
 H         -6.0998719654        2.2863122373       -1.1853447248
 H         -4.7413378100        2.9531820634        1.4358392598
 H         -4.0301004644        3.5578349063       -0.0615965937
 O         -2.7871771651        1.7028706240       -0.5809994003
 C         -1.9139892299        0.6728495445       -0.8975816204
 O         -0.9337976395        1.0478380040       -1.5717679679
 O         -3.6818460225       -2.0199554776        0.7490410366
 C         -1.3063747703       -1.7935669654       -0.7334693166
 C         -0.1061019702       -1.7717159358        0.1836180557
 C         -0.0139866835       -2.6695131312        1.2411965368
 C          1.0808215602       -2.6522503485        2.0874027182
 C          2.1009534662       -1.7370455050        1.9015201163
 C          2.0143663677       -0.8299953751        0.8529506126
 C          0.9222832559       -0.8590745093       -0.0040681818
 H          0.8509079902       -0.1407352978       -0.8069746389
 N          3.0254795569        0.1336144190        0.6746070474
 S          4.6245570900       -0.4015583120        0.7613441536
 O          4.7967640227       -1.5949245170       -0.0373276468
 O          4.9888194481       -0.5214438866        2.1513635795
 C          5.4898616533        0.9714673421        0.0277643781
 C          5.8690665140        0.9027175070       -1.2990968798
 C          6.5229999164        1.9854176339       -1.8659282193
 C          6.7817049316        3.1128800648       -1.1011962373
 C          6.3940845257        3.1669758602        0.2295352161
 C          5.7414556879        2.0874695599        0.8029694403
 H          5.4300918852        2.0811515501        1.8344464371
 H          6.5989756093        4.0448281800        0.8208016618
 H          7.2908306327        3.9539292467       -1.5448061369
 H          6.8274748668        1.9454239649       -2.8994162837
 H          5.6539722432        0.0030731988       -1.8532651749
 H          2.8711186934        0.6825286741       -0.1606137398
 H          2.9619030788       -1.7149678983        2.5500702013
 H          1.1412589288       -3.3583683791        2.9020325610
 H         -0.8146060907       -3.3771795052        1.4021893224
 H         -1.9020380896       -2.6796398607       -0.4761512778
 C         -0.9008346804       -1.8968272238       -2.1905185402
 C         -0.3689248049       -3.2004000809       -2.7030618381
 C         -1.7269219180       -2.7269752227       -3.1245809555
 H         -1.8622898262       -2.3804285075       -4.1381357441
 H         -2.5916346459       -3.2292905072       -2.7160213785
 H          0.4317244088       -3.1818518039       -3.4264428625
 H         -0.3114728681       -4.0234223762       -2.0067114847
 H         -0.4720023378       -0.9863522509       -2.5878112257
