  62
        -98.94440472
 C         -1.9668754703       -1.1097505796       -0.1853181391
 C         -2.4259835101        0.0661053502       -0.8257564197
 C         -3.8803537701        0.2822806903       -0.7955989700
 C         -4.6723997502       -0.6312831093       -0.2053924097
 C         -6.1609807803       -0.5092163491       -0.0586299600
 C         -6.5335571104        0.1744783615        1.2644384996
 C         -5.7633012403        1.4680907515        1.5297476291
 H         -6.1283187904        1.8759054020        2.4748421789
 H         -4.7056760904        1.2323008115        1.6685136794
 C         -5.9034418201        2.5278285711        0.4280795886
 H         -6.7715801900        2.3042947708       -0.1930690014
 H         -6.0811123801        3.4982805813        0.8962670982
 C         -4.6699859299        2.6835283505       -0.4636414213
 H         -4.7914540797        3.5943065203       -1.0562012017
 H         -3.7804600200        2.8148377307        0.1580896788
 C         -4.4053308499        1.5327143301       -1.4427262607
 H         -5.3097282398        1.3216760099       -2.0170877107
 H         -3.6254538497        1.8600111497       -2.1368161307
 H         -6.3281749106       -0.5199011482        2.0823602600
 H         -7.6050726804        0.3821048616        1.2559859794
 H         -6.5581037901        0.0583841705       -0.8978430003
 H         -6.5915723403       -1.5118470791       -0.0734219296
 O         -4.1949547904       -1.7608570991        0.3770033408
 C         -2.8352079005       -2.0215589292        0.4149079212
 O         -2.5287720106       -3.0781432890        1.0033191517
 H          1.6263221300        0.1045726897       -1.1238948391
 C          1.3088563398        0.3842302602       -0.1341578093
 C          0.2645732797       -0.2778215995        0.4903443108
 C         -0.1233236405        0.1368540412        1.7628499606
 C          0.5050463495        1.1984487814        2.3826213002
 C          1.5423660297        1.8633934310        1.7515680801
 C          1.9414986698        1.4554502404        0.4850209703
 N          2.9731882900        2.1322393600       -0.1828587699
 S          4.1514077901        1.3127565995       -1.0353877693
 O          5.1789538502        2.3034034793       -1.2679701896
 O          3.5901628602        0.6880595290       -2.2050585991
 C          4.7510566298        0.0792512000        0.1043094214
 C          5.6666842497        0.4669911503        1.0635728413
 C          6.1016027794       -0.4646344793        1.9916950618
 C          5.6094377493       -1.7605881492        1.9502909223
 C          4.6909383894       -2.1336524896        0.9814452124
 C          4.2544532897       -1.2068589800        0.0475883919
 H          3.5455961698       -1.4620334603       -0.7224850981
 H          4.3110784794       -3.1424345696        0.9487989328
 H          5.9455906492       -2.4857107889        2.6745721127
 H          6.8198981494       -0.1790898390        2.7432576518
 H          6.0332785297        1.4806385803        1.0529086109
 H          3.3723295700        2.9015659802        0.3342670299
 H          2.0282192997        2.7006107512        2.2292144597
 H          0.1874907094        1.5124916219        3.3655554500
 H         -0.9370121406       -0.3815014385        2.2524558407
 C         -0.4809002003       -1.4235805997       -0.1486989487
 H         -0.3747025505       -2.3065327694        0.4982432117
 C          0.0089548499       -1.7780955404       -1.5366112485
 C          1.1631701698       -2.7171814005       -1.7102363779
 C         -0.2253191302       -3.1638756106       -2.0550573179
 H         -0.4871769400       -3.2879507510       -3.0951301579
 H         -0.7176942603       -3.8625897802       -1.3941259677
 H          1.8600363399       -2.5334940110       -2.5150201279
 H          1.6104756696       -3.1259881502       -0.8165298877
 H         -0.0958625500       -0.9612795707       -2.2419668889
 O         -1.6660209799        0.8941256199       -1.3926713000
