  62
        -98.94012272
 C         -2.4340514752        0.8601742350        0.0034210229
 C         -2.7380862257       -0.5013792196       -0.2376192227
 C         -4.1332798979       -0.7847983829       -0.5985673291
 C         -5.0152152038        0.2253286728       -0.7102924188
 C         -6.4627972496        0.0992186057       -1.1015504601
 C         -7.3968108815       -0.2536899947        0.0639781195
 C         -7.2906727218       -1.6932417357        0.5684197272
 H         -8.1419719171       -1.8643090207        1.2302642965
 H         -7.3889190913       -2.3799759510       -0.2728159922
 C         -5.9982930782       -2.0003508902        1.3377927829
 H         -5.5250613696       -1.0646396022        1.6444726301
 H         -6.2395046288       -2.5501508076        2.2503893901
 C         -4.9810592695       -2.8367690582        0.5612992549
 H         -4.0928730859       -2.9624294772        1.1858853710
 H         -5.3961737326       -3.8274621645        0.3631780171
 C         -4.5381011225       -2.2176615386       -0.7709964382
 H         -3.6648102684       -2.7667561526       -1.1315569294
 H         -5.3355051718       -2.3028125778       -1.5089010016
 H         -7.2028542117        0.4367051353        0.8880531764
 H         -8.4208741354       -0.0851380487       -0.2769690118
 H         -6.7618360146        1.0712056464       -1.4997150777
 H         -6.5652470233       -0.6464072738       -1.8903949177
 O         -4.6741488387        1.5244525877       -0.4949701569
 C         -3.3877653202        1.8705336839       -0.1155728331
 O         -3.2178424022        3.0929642362        0.0718734405
 O         -1.8923629556       -1.4303223397       -0.1615833314
 C         -1.0290926051        1.2607237249        0.4097823663
 C         -0.0220997188        0.8393682950       -0.6335462221
 C         -0.3143149931        1.0294425247       -1.9819398591
 C          0.5985984801        0.6831334193       -2.9588613081
 C          1.8340144404        0.1636216624       -2.6139001870
 C          2.1390207321       -0.0233496523       -1.2716831798
 C          1.2114301396        0.3076446054       -0.2929848383
 H          1.4776207851        0.1495656716        0.7387364427
 N          3.3790951794       -0.5553608255       -0.8831495263
 S          4.0933017080        0.0456618828        0.5248184962
 O          3.5920088993       -0.6930297989        1.6561628183
 O          3.9436570974        1.4821116591        0.5807774668
 C          5.8002560396       -0.3836934927        0.2339909340
 C          6.2270329826       -1.6652869089        0.5269673184
 C          7.5463720960       -2.0057728931        0.2739306679
 C          8.4119414909       -1.0655194056       -0.2652460979
 C          7.9696853669        0.2170596541       -0.5526698244
 C          6.6512290737        0.5639939125       -0.3030613736
 H          6.2654331161        1.5511001955       -0.5014007255
 H          8.6456314522        0.9468417177       -0.9684305286
 H          9.4385382634       -1.3330596194       -0.4596328897
 H          7.8947883003       -3.0009212922        0.4986751845
 H          5.5211857274       -2.3590252671        0.9532368229
 H          4.0399534960       -0.6119336907       -1.6459065052
 H          2.5510588263       -0.0989566253       -3.3768524675
 H          0.3513446368        0.8301056702       -3.9996431259
 H         -1.2727864121        1.4516678978       -2.2534373603
 H         -1.0244121532        2.3609378358        0.4519386914
 C         -0.7157902350        0.7230908820        1.7911835792
 C          0.2326391163        1.4533796889        2.6921247265
 C         -1.2352860864        1.4504750778        2.9932992365
 H         -1.5890123169        0.8727374861        3.8339807278
 H         -1.7948101787        2.3582026847        2.8182837000
 H          0.8941014560        0.8747003877        3.3202045942
 H          0.6765778462        2.3643728666        2.3184527217
 H         -0.7137604410       -0.3610466472        1.8233452200
