  62
        -98.93987535
 C         -1.7268376800       -1.3078483099        0.3416581314
 C         -1.5654818399       -0.1345421504       -0.4315027894
 C         -2.3743076396        1.0307776200       -0.0234028500
 C         -3.1852142395        0.9245172509        1.0435346402
 C         -4.1230467892        1.9644245314        1.5925167996
 C         -5.5310697493        1.7982879913        0.9956535300
 C         -5.7640977894        2.5377887005       -0.3211697305
 H         -6.7465503395        2.2373440404       -0.6924956901
 H         -5.8022184191        3.6118499806       -0.1272432912
 C         -4.7234590296        2.2730032996       -1.4120526605
 H         -4.4872289898        1.2078441395       -1.4428679598
 H         -5.1723553697        2.5326987290       -2.3726420806
 C         -3.4353165894        3.0888582295       -1.2280277012
 H         -3.2028091295        3.6121065388       -2.1578790916
 H         -3.6041174292        3.8586870600       -0.4753416217
 C         -2.1914140695        2.2681781995       -0.8598776109
 H         -1.7122586797        1.9076343088       -1.7758131807
 H         -1.4687235493        2.9233057896       -0.3605439614
 H         -6.2631975091        2.1597225219        1.7206887199
 H         -5.7116305795        0.7293607312        0.8553054807
 H         -4.1801225390        1.7928976921        2.6696946998
 H         -3.7373670790        2.9646589912        1.4187624389
 O         -3.2954909996       -0.2226355086        1.7706284209
 C         -2.5786784398       -1.3599146990        1.4430215816
 O         -2.7743439999       -2.3316439884        2.2018317122
 H          0.4095682603       -0.9712965894        1.6654640708
 C          1.0705870801       -1.4120273200        0.9287395010
 C          0.5425735698       -2.2645185805       -0.0322764884
 C          1.4077032495       -2.8223660713       -0.9652461181
 C          2.7601249696       -2.5279528815       -0.9349657386
 C          3.2787169799       -1.6678405810        0.0149086008
 C          2.4210738401       -1.1010978102        0.9492795206
 N          2.9305447605       -0.2024816297        1.9025543899
 S          3.9911975306        0.9752567697        1.3602430990
 O          5.3275719605        0.4335575395        1.3271754191
 O          3.7937729610        2.0986630404        2.2505804383
 C          3.4706464204        1.3874626988       -0.2956985412
 C          2.1771417005        1.8291816789       -0.4891605013
 C          1.7592574003        2.1377801081       -1.7726204414
 C          2.6381970301        1.9997959773       -2.8356249515
 C          3.9361916701        1.5617522372       -2.6248785314
 C          4.3589679002        1.2502007979       -1.3429243913
 H          5.3569571002        0.9009581679       -1.1331433612
 H          4.6171269399        1.4570997165       -3.4541447014
 H          2.3050117400        2.2343486467       -3.8342281216
 H          0.7456708603        2.4638471182       -1.9376440115
 H          1.5106684006        1.9225432495        0.3541078188
 H          2.2255783906        0.1962381208        2.5048214998
 H          4.3288388399       -1.4273373712        0.0521772905
 H          3.4195240994       -2.9708376321       -1.6653401684
 H          1.0220696693       -3.4873150817       -1.7202623276
 C         -0.9391359103       -2.5557835402       -0.0099299379
 H         -1.1325343203       -3.2762809397        0.7989976426
 C         -1.4506301906       -3.1383548810       -1.3125785275
 C         -1.4392644709       -4.6192656411       -1.5404333165
 C         -2.7361504208       -3.9077815207       -1.3017573368
 H         -3.4196701709       -3.7846416511       -2.1284439667
 H         -3.2257789506       -4.0388320000       -0.3472648166
 H         -1.2353397312       -4.9871125818       -2.5347792363
 H         -1.0545739309       -5.2456142407       -0.7496851262
 H         -1.2639959306       -2.4867886216       -2.1584532579
 O         -0.7864912000       -0.0577914712       -1.4152934296
