  62
        -98.93613875
 C         -1.9225311408       -1.3381657416        0.4343285719
 C         -1.6831276928       -0.0435925516       -0.0773995848
 C         -2.7826872404        0.9346176239        0.0512099219
 C         -3.9353461810        0.5428023738        0.6261229639
 C         -5.1967067270        1.3409792313        0.8225442497
 C         -6.0028756279        1.5045013022       -0.4761263041
 C         -5.1733320571        1.8544833384       -1.7088229514
 H         -4.4183502748        1.0815719004       -1.8650643759
 H         -5.8406779676        1.8335030827       -2.5745454124
 C         -4.4987430087        3.2238158699       -1.6732095383
 H         -4.0197909829        3.3743875814       -2.6442486246
 H         -5.2622275247        3.9962835328       -1.5570357496
 C         -3.4395673085        3.4193700457       -0.5865627816
 H         -2.8838893089        4.3282527602       -0.8350655302
 H         -3.8995904366        3.5938011132        0.3822948424
 C         -2.4128373818        2.2954052168       -0.4882939839
 H         -1.9770503170        2.1194198081       -1.4785891424
 H         -1.5783215949        2.6395776979        0.1346580681
 H         -6.7625431866        2.2714003203       -0.3161210135
 H         -6.5142345283        0.5599430581       -0.6772693003
 H         -5.8068163962        0.7907575736        1.5421779252
 H         -4.9631223325        2.3080304013        1.2576213026
 O         -4.1222826106       -0.7243816431        1.0964250129
 C         -3.1366058115       -1.6871856993        1.0237369573
 O         -3.4474384312       -2.7912586704        1.5144569113
 H          1.6814890140       -2.4178929395       -0.7960864689
 C          1.6484666755       -1.9381673713        0.1700120195
 C          0.4572328831       -1.8572990616        0.8748389226
 C          0.4656634148       -1.2286423964        2.1178745195
 C          1.6205383256       -0.6648057006        2.6238721108
 C          2.7971942249       -0.7111684138        1.8956607874
 C          2.8047521277       -1.3560449046        0.6682691325
 N          4.0127289256       -1.3511734037       -0.0881989301
 S          4.0392880374       -0.0794661960       -1.2045031518
 O          3.0129282476       -0.2579876336       -2.2096789749
 O          5.3920379716       -0.0385394635       -1.7189721649
 C          3.7182477808        1.3511502569       -0.2018395715
 C          4.7936887556        1.9926697583        0.3815113215
 C          4.5590929651        3.0890578860        1.1948989204
 C          3.2583632550        3.5184465871        1.4121490280
 C          2.1917855618        2.8611292471        0.8187266063
 C          2.4159102002        1.7633640724        0.0019879241
 H          1.6004896432        1.2289715718       -0.4620107529
 H          1.1788731779        3.1900520608        0.9894478383
 H          3.0731615374        4.3704414156        2.0473798803
 H          5.3865577115        3.6024876267        1.6575255197
 H          5.7852000463        1.6217100684        0.1794265163
 H          4.1394367696       -2.2083667049       -0.6123823265
 H          3.7024318877       -0.2573937578        2.2645989674
 H          1.6029371646       -0.1742824659        3.5849278995
 H         -0.4599027253       -1.1730174652        2.6752803521
 C         -0.8434936542       -2.4017852555        0.3401079802
 H         -1.1710822936       -3.2298494869        0.9856198833
 C         -0.7466174898       -2.9071448638       -1.0851662705
 C         -0.2986679387       -4.3105123741       -1.3611456430
 C         -1.7341591553       -3.9286311129       -1.5593203953
 H         -2.1136607726       -3.8502652946       -2.5671734088
 H         -2.4636830925       -4.2787499008       -0.8436098104
 H          0.3064217228       -4.4962653200       -2.2363201213
 H         -0.0529726595       -4.9332367357       -0.5141265094
 H         -0.4559649527       -2.1302755737       -1.7852000311
 O         -0.5979437003        0.2946095950       -0.6198332731
