  62
        -98.94287433
 C         -2.3097970754       -0.6441763207       -0.0924625943
 C         -1.2820157885       -0.8702860899        0.8490206671
 C         -0.4226486450       -2.0451921462        0.6260029756
 C         -0.6541415868       -2.8284996158       -0.4422793429
 C          0.1389535062       -4.0030208178       -0.9596861566
 C          0.7734534836       -4.9681086328        0.0511402144
 C          2.2873359545       -4.7953128303        0.2006270753
 H          2.7070679351       -4.5683889591       -0.7818703217
 H          2.7147209441       -5.7464850067        0.5264111926
 C          2.7365784775       -3.7259059242        1.1943631555
 H          3.8211377466       -3.6289918797        1.1063340329
 H          2.5192723081       -4.0620155970        2.2105267278
 C          2.1056619811       -2.3469478855        0.9986026103
 H          2.0668886665       -2.0822401681       -0.0599873137
 H          2.7488972753       -1.6077374170        1.4823981375
 C          0.6995503801       -2.2313652279        1.6090403078
 H          0.6525121490       -1.3537894447        2.2598783974
 H          0.4914856584       -3.0982227800        2.2404942698
 H          0.5911428480       -5.9810712902       -0.3123321999
 H          0.2785032118       -4.8788827232        1.0159839276
 H          0.9117112472       -3.5966961625       -1.6204474085
 H         -0.5570147814       -4.5491700745       -1.6019808312
 O         -1.6935793528       -2.6024890894       -1.2972975929
 C         -2.5127437587       -1.4962065300       -1.1743229866
 O         -3.3748793215       -1.3851968163       -2.0717075262
 O         -1.0667877002       -0.1003542399        1.8238269704
 C         -3.1203883139        0.6380241094       -0.0203117004
 C         -2.1619221173        1.8061941218       -0.0581588239
 C         -2.2710351069        2.9252339205        0.7571270980
 C         -1.3178666346        3.9284063850        0.7000461486
 C         -0.2269823161        3.8258298577       -0.1440906102
 C         -0.1163159576        2.7152528945       -0.9733831785
 C         -1.0992005238        1.7401983282       -0.9509194567
 H         -1.0031199112        0.8874574096       -1.6071956254
 N          0.9823168874        2.5448408672       -1.8403257417
 S          1.9478314307        1.1876052192       -1.6494727265
 O          2.9784361197        1.3242466946       -2.6570197360
 O          1.1500163985       -0.0094858368       -1.7161939373
 C          2.6867409170        1.3746952913       -0.0357951176
 C          4.0191929316        1.7319331590        0.0451139207
 C          4.5904310768        1.9215820610        1.2928316422
 C          3.8199008706        1.7615716530        2.4348077692
 C          2.4829188558        1.4094853123        2.3356156637
 C          1.9050956670        1.2125372598        1.0903814453
 H          0.8692601910        0.9277720277        0.9963015032
 H          1.8751992329        1.2820076610        3.2173820242
 H          4.2622906465        1.9104434498        3.4071901490
 H          5.6307276143        2.1937660577        1.3703855892
 H          4.5775029208        1.8443740232       -0.8702007172
 H          1.5743996568        3.3609436515       -1.9145046815
 H          0.5328755483        4.5924979420       -0.1623008274
 H         -1.4139920830        4.7916236007        1.3407272378
 H         -3.0964551910        3.0069006508        1.4452780429
 H         -3.7374954666        0.6621394504       -0.9306633536
 C         -4.0291439306        0.6406728722        1.1906705049
 C         -5.3299205631        1.3841249575        1.1579907099
 C         -5.3216969302       -0.1138211913        1.1241521859
 H         -5.6494258031       -0.6539158253        1.9995770295
 H         -5.5570245601       -0.6090465127        0.1929801551
 H         -5.6687504159        1.8714296715        2.0597485714
 H         -5.5846059911        1.9081076752        0.2490763372
 H         -3.4777474855        0.6082404717        2.1230377651
