  62
        -98.93490623
 C          2.2890139412        0.8767602277       -0.1248620997
 C          3.5785619935        1.2500977902        0.3179378360
 C          4.7080116718        0.4755756161       -0.2245940376
 C          4.4581272250       -0.5151228727       -1.0985061153
 C          5.4518531042       -1.4545229375       -1.7242890239
 C          5.5687051673       -2.7486977333       -0.9010730706
 C          6.5854108701       -2.6979481091        0.2388738847
 H          6.4722266713       -3.6187541135        0.8156754131
 H          7.5937820864       -2.6957023756       -0.1801737534
 C          6.4472787687       -1.5038227721        1.1868669271
 H          5.3931521925       -1.3364152982        1.4155325695
 H          6.9441829156       -1.7613566160        2.1242244625
 C          7.0727444074       -0.2159463892        0.6306863418
 H          7.7453860971        0.2107315994        1.3775304616
 H          7.6881326727       -0.4638695155       -0.2338570071
 C          6.0737231290        0.8881672853        0.2534767218
 H          6.5266984224        1.5360732181       -0.5041736284
 H          5.8807796384        1.5186808251        1.1271006779
 H          4.5777085746       -2.9813609615       -0.5024478109
 H          5.8507173755       -3.5646013445       -1.5696395827
 H          6.4180632604       -0.9727567021       -1.8402637057
 H          5.0616171399       -1.7053623445       -2.7128236111
 O          3.1980723390       -0.8386303050       -1.5035848432
 C          2.0859322191       -0.1647437053       -1.0290934004
 O          1.0007525694       -0.5796434558       -1.4806633429
 O          3.7781582511        2.1835550034        1.1417798012
 C          1.0824415487        1.6323353226        0.4012657445
 C          0.1313535688        0.6758102328        1.0765479000
 C          0.6241246269       -0.1624018810        2.0741617876
 C         -0.2030997140       -1.0687613679        2.7067584595
 C         -1.5384227874       -1.1611372651        2.3550971296
 C         -2.0450850573       -0.3190229937        1.3728644903
 C         -1.2126595775        0.6004465364        0.7480808867
 H         -1.6272744454        1.2369248639       -0.0141393771
 N         -3.4137390247       -0.3631766952        1.0449298668
 S         -3.9207771374       -0.2357491011       -0.5603581263
 O         -3.3817352247       -1.3208110426       -1.3506223851
 O         -3.6683407481        1.0997237830       -1.0365981994
 C         -5.6749963154       -0.4626499336       -0.3272613711
 C         -6.4078839090        0.5879838765        0.1916747451
 C         -7.7668921289        0.4176753187        0.4013001285
 C         -8.3675473997       -0.7935831661        0.0908026707
 C         -7.6196756304       -1.8381444600       -0.4308243768
 C         -6.2592687661       -1.6745713247       -0.6415787614
 H         -5.6389407831       -2.4553610885       -1.0518039531
 H         -8.0895752350       -2.7774706518       -0.6742089301
 H         -9.4257679520       -0.9232973305        0.2539622904
 H         -8.3523491417        1.2280680751        0.8046266450
 H         -5.8994548650        1.5124726102        0.4098440403
 H         -3.8750472458       -1.1555625277        1.4736898244
 H         -2.1831895335       -1.8785121122        2.8402828833
 H          0.1945593318       -1.7162681817        3.4739431710
 H          1.6709346565       -0.0970723579        2.3392771466
 H          1.4773855774        2.3217733724        1.1625843504
 C          0.4446228969        2.4450448374       -0.7049723643
 C         -0.3186288030        3.6926421424       -0.3787403231
 C          1.0180565868        3.7856090310       -1.0494554445
 H          1.0574512500        4.0770769850       -2.0883401721
 H          1.8610693078        4.1271141862       -0.4666033111
 H         -1.2039815671        3.9158642633       -0.9550012685
 H         -0.3849377948        3.9780864699        0.6602461158
 H          0.0871804883        1.8288643309       -1.5238550582
