  62
        -98.94295994
 C         -2.0100726353       -0.4706679611        0.0561407544
 C         -2.6683371320        0.7858752443        0.1229633297
 C         -4.0399585663        0.8334075080       -0.3926125876
 C         -4.5930001209       -0.2769641506       -0.9126926136
 C         -5.9732178334       -0.3898000042       -1.5008653485
 C         -7.0779476995       -0.6218259909       -0.4609493930
 C         -7.4230822581        0.5913580958        0.4036145673
 H         -7.6213687894        1.4498394850       -0.2388774363
 H         -8.3508737637        0.3567085358        0.9291833293
 C         -6.3498429463        0.9575948545        1.4383182927
 H         -5.6706280195        0.1127659234        1.5739053860
 H         -6.8238299278        1.1448869217        2.4045285652
 C         -5.5293491716        2.1993965824        1.0890243384
 H         -4.7773357007        2.3444823245        1.8690186397
 H         -6.1784943914        3.0779024538        1.0809366980
 C         -4.8019034122        2.1172853774       -0.2594260948
 H         -5.5138632915        2.2236643418       -1.0777822988
 H         -4.0822015963        2.9380544729       -0.3119405258
 H         -7.9775627343       -0.9218131775       -1.0032076288
 H         -6.7836337153       -1.4548789098        0.1814524128
 H         -6.1987982016        0.5063371668       -2.0796469687
 H         -5.9531517566       -1.2461370554       -2.1783029784
 O         -3.9252527328       -1.4562763441       -0.9803737344
 C         -2.6330457007       -1.5934557793       -0.4902354124
 O         -2.1809738979       -2.7481743674       -0.6143847051
 O         -2.1317753386        1.8226354634        0.5992436453
 C         -0.6024046865       -0.5277023523        0.6235417221
 C          0.4522411089       -0.4240339061       -0.4525451322
 C          0.5304920364       -1.3475477120       -1.4906233103
 C          1.5124638211       -1.2327408792       -2.4570400535
 C          2.4483146929       -0.2144776732       -2.3953664649
 C          2.3837542890        0.7082041898       -1.3592447284
 C          1.3824581972        0.6040668939       -0.4026129108
 H          1.3399705148        1.3375939857        0.3883624321
 N          3.3283035843        1.7486035354       -1.2548368343
 S          4.2425641871        1.8367285720        0.1459462843
 O          3.3910555652        2.1193305943        1.2717667254
 O          5.2773892428        2.8042999928       -0.1408676417
 C          4.9594355950        0.2101350435        0.3021694502
 C          6.2223134312       -0.0132920631       -0.2110150959
 C          6.7523335522       -1.2922234574       -0.1565341011
 C          6.0086511796       -2.3237927571        0.3964682174
 C          4.7409513426       -2.0838642787        0.9038993612
 C          4.2075863075       -0.8054477788        0.8592027867
 H          3.2260180019       -0.5865800374        1.2463233556
 H          4.1603371845       -2.8853560312        1.3315554486
 H          6.4185963413       -3.3207443326        0.4337915521
 H          7.7391948998       -1.4810881605       -0.5473557116
 H          6.7654177991        0.8189578645       -0.6289155995
 H          3.9358172875        1.8267934219       -2.0587478117
 H          3.2193757023       -0.1308281862       -3.1464246782
 H          1.5564760160       -1.9507798739       -3.2617261848
 H         -0.1915320697       -2.1480569422       -1.5360136553
 H         -0.5152458132        0.3679582410        1.2544706966
 C         -0.3466297418       -1.7457397163        1.4905753840
 C          0.6837704234       -1.6603386682        2.5748262430
 C         -0.7721967100       -1.7235914775        2.9263049010
 H         -1.1623778794       -2.6312039553        3.3614985670
 H         -1.2471069772       -0.8248800546        3.2930800984
 H          1.2970468252       -2.5255017771        2.7745079305
 H          1.1918046685       -0.7164843823        2.7125964675
 H         -0.4461767232       -2.6821754991        0.9575977951
