  62
        -98.94037750
 C         -0.8458019903       -1.1784413197        0.7912054614
 C         -1.6459515571       -1.0691535008       -0.3702425381
 C         -2.4558393324        0.1520902155       -0.4799162179
 C         -2.3456754938        1.1114708654        0.4551725322
 C         -3.0275328948        2.4549194544        0.4550953022
 C         -4.5639381505        2.4458908053        0.5711419173
 C         -5.3007628296        2.4819960247       -0.7732732522
 H         -6.1643078649        3.1442069859       -0.6833451397
 H         -4.6425070323        2.9249928781       -1.5219540665
 C         -5.8210387068        1.1351604137       -1.2838684242
 H         -6.7299993293        0.8735058001       -0.7374598051
 H         -6.0924306436        1.2584098638       -2.3345382949
 C         -4.8550187168       -0.0429510548       -1.1571459615
 H         -5.2605682462       -0.8795744421       -1.7294681296
 H         -4.8114852633       -0.3721871475       -0.1163025881
 C         -3.4168586172        0.2494371745       -1.6280862610
 H         -3.1012074681       -0.4980313688       -2.3591826851
 H         -3.3520416976        1.2302210874       -2.0979844698
 H         -4.8785920757        1.5817861515        1.1555095131
 H         -4.8422153380        3.3376936345        1.1349623338
 H         -2.6111916313        2.9927000517        1.3097713083
 H         -2.7328620289        2.9911127644       -0.4508015745
 O         -1.5241948042        0.9886620945        1.5343168242
 C         -0.7604619495       -0.1511649125        1.7291371362
 O         -0.0521579519       -0.1258476126        2.7561477358
 H          1.5011878582       -0.3216962039        0.1722671765
 C          1.7120701996       -1.1881938694       -0.4375215322
 C          1.0673461378       -2.3860778494       -0.1550249766
 C          1.3610889625       -3.4975427298       -0.9325232505
 C          2.2506097226       -3.3920658849       -1.9888389546
 C          2.8478396909       -2.1842729985       -2.2995482567
 C          2.5717183133       -1.0694142540       -1.5151075505
 N          3.1604825983        0.1757174638       -1.7796114785
 S          2.3139132274        1.5820255176       -1.4539108028
 O          0.8959466374        1.4375631538       -1.6912375427
 O          2.9850129224        2.5893058299       -2.2512003290
 C          2.6362931844        1.9088487165        0.2652392036
 C          1.6158396619        2.3879618730        1.0612556636
 C          1.8753381887        2.6641815406        2.3937667642
 C          3.1482682663        2.4615549550        2.9026626580
 C          4.1655927371        1.9873431590        2.0882488603
 C          3.9117591225        1.7087900353        0.7551704596
 H          4.6751446394        1.3343612926        0.0938422136
 H          5.1536540958        1.8299170063        2.4899510972
 H          3.3448809095        2.6712463675        3.9422292946
 H          1.0790375017        3.0196512754        3.0275832860
 H          0.6337032855        2.5135242925        0.6314695887
 H          3.6862170975        0.2333406631       -2.6394296965
 H          3.5162851324       -2.0991512948       -3.1426451210
 H          2.4662683558       -4.2605433529       -2.5926420093
 H          0.8831112055       -4.4405575150       -0.7241022271
 C          0.0671874144       -2.3788486801        0.9764704854
 H          0.6124516563       -2.2048680686        1.9156915852
 C         -0.7294567602       -3.6592717104        1.0992625508
 C         -0.1684293847       -4.8231135733        1.8584241655
 C         -1.3024257986       -4.0300884596        2.4330396468
 H         -2.2839680021       -4.4785501322        2.4654875248
 H         -1.0975433121       -3.3679292279        3.2618279775
 H         -0.3731275560       -5.8202914709        1.4991623809
 H          0.8076361049       -4.7051273898        2.3039488159
 H         -1.3331163905       -3.8597550214        0.2219091570
 O         -1.6836485240       -1.9438576542       -1.2754185419
