  62
        -98.93994524
 C          1.7811804001        1.6330528899       -0.0025717898
 C          1.6144874101        0.5019892901       -0.8319966100
 C          2.7370830200       -0.4567400801       -0.8850745000
 C          3.8363087899       -0.2093256303       -0.1489441899
 C          5.0514621598       -1.0821144705        0.0056917101
 C          4.7989979996       -2.2767307406        0.9454365499
 C          3.4297414595       -2.9396695304        0.8040152597
 H          3.3180851894       -3.6495153305        1.6278450596
 H          2.6529246296       -2.1814261903        0.9234201797
 C          3.2075376296       -3.7015286602       -0.5007005804
 H          3.9199564195       -4.5281235302       -0.5545513705
 H          2.2035320595       -4.1326088001       -0.4681332806
 C          3.3364389398       -2.8791798200       -1.7826156203
 H          2.9915621098       -3.5072285098       -2.6095705404
 H          4.3788504298       -2.6481555001       -1.9848405002
 C          2.4897750899       -1.6094689899       -1.8284562302
 H          2.5572674001       -1.1893704998       -2.8401385601
 H          1.4353756799       -1.8780010098       -1.6992826503
 H          5.5831275995       -3.0175834206        0.7825431099
 H          4.8840059695       -1.9159751407        1.9731417600
 H          5.3928395399       -1.4143496803       -0.9704410699
 H          5.8371416898       -0.4592743306        0.4384227803
 O          3.9554536100        0.8982180596        0.6362831203
 C          2.9502271301        1.8384211897        0.7322163204
 O          3.2065919201        2.7950917195        1.4907119605
 H         -1.8652746298        1.8981993204       -0.7155665501
 C         -1.6848551199        1.7108261103        0.3295435099
 C         -0.4691287499        2.0324374500        0.9123878901
 C         -0.2770129101        1.7467084798        2.2630862601
 C         -1.2780485002        1.1624454798        3.0133289699
 C         -2.4899346002        0.8388676700        2.4271539297
 C         -2.6896295400        1.1114998703        1.0801745597
 N         -3.9170584600        0.7980868505        0.4620277796
 S         -3.9013533000       -0.2655896893       -0.8356779706
 O         -3.2433047198        0.3412211108       -1.9610234304
 O         -5.2911333400       -0.6241178891       -1.0271607308
 C         -3.0023163302       -1.6760995195       -0.2160600507
 C         -3.7214844204       -2.6871776195        0.3925659291
 C         -3.0390430006       -3.7454133197        0.9692523990
 C         -1.6525987606       -3.7663910398        0.9420449291
 C         -0.9477355604       -2.7425757998        0.3293085493
 C         -1.6230068502       -1.6837547497       -0.2594387606
 H         -1.0945480101       -0.8806456996       -0.7507625704
 H          0.1312164996       -2.7536965899        0.3084507994
 H         -1.1174030907       -4.5841059900        1.3986962991
 H         -3.5866640907       -4.5450881897        1.4414832288
 H         -4.7981212804       -2.6290541894        0.3891080490
 H         -4.6284874301        0.5018045405        1.1165480895
 H         -3.2765063403        0.3819322701        3.0086436496
 H         -1.1151323003        0.9538003597        4.0597219399
 H          0.6743166099        1.9952897396        2.7137928502
 C          0.6727035202        2.6625469700        0.1503829903
 H          1.0933560403        3.4589643899        0.7806775404
 C          0.2691382804        3.2627726803       -1.1784416597
 C         -0.4534471794        4.5749089403       -1.2005280096
 C          0.9694484806        4.4945242103       -1.6641834994
 H          1.1751645507        4.5876524604       -2.7200716794
 H          1.7379146406        4.9146021101       -1.0312187693
 H         -1.2283880094        4.7232317505       -1.9372731896
 H         -0.6511035395        5.0516960202       -0.2521714095
 H         -0.0030128196        2.5224917604       -1.9209121498
 O          0.5712908401        0.2799407503       -1.5023328001
