  62
        -98.93522889
 C         -1.9134163153       -0.9803616923        0.2903787070
 C         -2.3005418221        0.0041695300        1.2301241622
 C         -2.5130353336        1.3679988308        0.7181535210
 C         -2.2835092718        1.6162006371       -0.5826321268
 C         -2.4657205122        2.9169869735       -1.3156586629
 C         -3.8663721261        3.0007508785       -1.9461762451
 C         -4.9519893771        3.5659095946       -1.0310408532
 H         -4.7804326612        4.6348668648       -0.8894936819
 H         -5.9060205465        3.4518779375       -1.5505267947
 C         -5.0585312392        2.9016262274        0.3439498708
 H         -6.0543279008        3.1084561589        0.7403614685
 H         -4.9710856060        1.8189227122        0.2368558366
 C         -4.0100451245        3.4112854103        1.3440679824
 H         -4.5074316743        3.7153549444        2.2673781715
 H         -3.5345742110        4.3046775396        0.9399673298
 C         -2.9343080465        2.3895569931        1.7396450934
 H         -2.0397667110        2.9218177439        2.0825954696
 H         -3.2873263076        1.7993977187        2.5916081080
 H         -4.1456309742        1.9961150457       -2.2738489598
 H         -3.8116852882        3.6311484115       -2.8359229313
 H         -1.7193698661        2.9252016185       -2.1130294142
 H         -2.2783559529        3.7587046799       -0.6553574184
 O         -1.8835854072        0.6482098533       -1.4505538237
 C         -1.6614216616       -0.6563588266       -1.0441374572
 O         -1.2664648206       -1.4078068521       -1.9554115001
 O         -2.4638198733       -0.2467655392        2.4565817799
 C         -1.6146724861       -2.3763192590        0.8102194543
 C         -0.2491071648       -2.7947424312        0.3246081136
 C          0.0145907795       -3.9816983059       -0.3444136931
 C          1.2936132872       -4.2565606370       -0.7982196050
 C          2.3236946623       -3.3543652491       -0.6118293569
 C          2.0711463055       -2.1675207939        0.0685577698
 C          0.8003859523       -1.9120539599        0.5511841414
 H          0.6128540834       -0.9851037156        1.0757615270
 N          3.0954474343       -1.2287252879        0.2921449736
 S          2.6812265031        0.4085090043        0.3078105067
 O          2.1837005153        0.7463657971        1.6194461616
 O          1.8213068727        0.7319214170       -0.8084005190
 C          4.2926189706        1.1388461440        0.0800438398
 C          4.6835348345        1.5380322460       -1.1839480257
 C          5.9498120482        2.0751855360       -1.3558909717
 C          6.8001191232        2.1995799182       -0.2674592333
 C          6.3935737602        1.7946758060        0.9953816441
 C          5.1284753800        1.2580352424        1.1743759157
 H          4.7636570784        0.9381139179        2.1363788633
 H          7.0561955750        1.8953915403        1.8396701376
 H          7.7848381198        2.6176638554       -0.4039788829
 H          6.2666818696        2.3935388520       -2.3359493841
 H          3.9839941505        1.4286182410       -1.9974761630
 H          3.9070277903       -1.3945609843       -0.2880229918
 H          3.3126743265       -3.5592117526       -0.9927020494
 H          1.4849406004       -5.1790084403       -1.3253660767
 H         -0.7842995041       -4.6784133178       -0.5378723101
 H         -1.5573860593       -2.2485000380        1.9051848145
 C         -2.7029808450       -3.4065860194        0.5520301174
 C         -4.1231517450       -2.9877439500        0.3195470611
 C         -3.3287511120       -3.5929242732       -0.7966142362
 H         -3.5746454251       -4.5965898534       -1.1115558537
 H         -2.9877864582       -2.9530931743       -1.5948627981
 H         -4.9111417021       -3.5720750425        0.7704856716
 H         -4.3301745330       -1.9278534655        0.2826075775
 H         -2.5616497612       -4.3018190922        1.1499807928
