  62
        -98.93805588
 C         -2.6745148968       -0.8177395306       -0.3787660254
 C         -3.1654158828        0.0137283663        0.6610725147
 C         -3.3429805313        1.4341717366        0.3394729233
 C         -3.0429275186        1.8671501425       -0.8980596113
 C         -3.1354668143        3.2931478489       -1.3561996384
 C         -1.8048504181        4.0318190221       -1.1578664219
 C         -1.2015872267        3.8658729864        0.2372938602
 H         -0.8871100926        2.8272819456        0.3726082740
 H         -0.2919481519        4.4700768958        0.2699656144
 C         -2.1305335563        4.2792456731        1.3874842802
 H         -1.5528880340        4.8644354200        2.1060934688
 H         -2.9253594288        4.9226465894        1.0078527580
 C         -2.7480983490        3.1124320312        2.1608159243
 H         -1.9614214270        2.4085837400        2.4472173763
 H         -3.1845209308        3.5084056196        3.0817853757
 C         -3.8498611661        2.3349428904        1.4295454693
 H         -4.5959716211        3.0310151146        1.0409640759
 H         -4.3350483903        1.6792769917        2.1584816107
 H         -1.0829158587        3.6499192741       -1.8834271440
 H         -1.9663315963        5.0921512018       -1.3617258099
 H         -3.3868087582        3.2967724981       -2.4183058300
 H         -3.9272252393        3.7945771822       -0.8029220796
 O         -2.5803075858        1.0450659481       -1.8714097219
 C         -2.3469328832       -0.3049541041       -1.6341107316
 O         -1.8653134386       -0.9035146125       -2.6148310297
 O         -3.4501542545       -0.4226290983        1.8091257901
 C         -2.4490127018       -2.2775515870       -0.0209337981
 C         -1.0677636463       -2.4355614890        0.5626869778
 C         -0.8583669586       -3.0627943476        1.7843939644
 C          0.4102297841       -3.1298609002        2.3359382990
 C          1.4925823156       -2.5656831331        1.6845867067
 C          1.2925427290       -1.9456910725        0.4597176087
 C          0.0257966651       -1.8905243667       -0.0967238110
 H         -0.1190783086       -1.3948921272       -1.0468512866
 N          2.3924824549       -1.3154746355       -0.1865167222
 S          2.6308343893        0.2548127177        0.4108493478
 O          2.5663410096        0.2054684399        1.8493033355
 O          1.7243158085        1.1741607126       -0.2456368903
 C          4.3054641820        0.5700174031       -0.1105507132
 C          5.3346775935        0.0044980823        0.6170207777
 C          6.6401452695        0.2085305893        0.2005220776
 C          6.8929748336        0.9688493181       -0.9317769549
 C          5.8492807263        1.5301533451       -1.6513974981
 C          4.5407611855        1.3284230211       -1.2403163732
 H          3.6985504836        1.7507033892       -1.7650238644
 H          6.0480420942        2.1225934355       -2.5300079662
 H          7.9098963017        1.1271178293       -1.2543977527
 H          7.4545752627       -0.2246086579        0.7583929727
 H          5.0895179927       -0.5713049237        1.4938138001
 H          2.2142293837       -1.2196270126       -1.1794661954
 H          2.4793545210       -2.5804010966        2.1165379713
 H          0.5537958232       -3.6135379334        3.2900654506
 H         -1.7033118256       -3.4751893406        2.3163483197
 H         -3.1714863882       -2.4861728032        0.7842439495
 C         -2.7392090953       -3.2448390082       -1.1582403709
 C         -1.6779645002       -4.0267282215       -1.8669648907
 C         -2.6146043563       -4.7221713599       -0.9282904181
 H         -3.3707160746       -5.3748931049       -1.3368513906
 H         -2.2174782419       -5.0428387343        0.0230110632
 H         -1.7945883674       -4.1752598281       -2.9294753395
 H         -0.6529488056       -3.8932562873       -1.5582778770
 H         -3.5751525912       -2.9142598730       -1.7657825393
