  62
        -98.94069045
 C          1.3691275508        1.4626502566        0.4130944564
 C          1.8837420954        0.3790988924        1.1713043509
 C          2.9979468744       -0.3617993610        0.5702118563
 C          3.4478956116       -0.0142393043       -0.6487247367
 C          4.6035501720       -0.6416063129       -1.3803218689
 C          4.2382676658       -1.9141287860       -2.1562597063
 C          3.9684748162       -3.1458304212       -1.2915658435
 H          4.8014764496       -3.2942379111       -0.6036587251
 H          3.9424593321       -4.0073044023       -1.9616898802
 C          2.6506929227       -3.0909334588       -0.5059429758
 H          2.1285076740       -4.0437137269       -0.6100032967
 H          2.0010261962       -2.3234822245       -0.9331970292
 C          2.8125944439       -2.8234381920        0.9903529823
 H          3.3392747048       -3.6580539764        1.4582043773
 H          1.8166055251       -2.7556277227        1.4335781088
 C          3.5615754265       -1.5274762298        1.3252664072
 H          4.6249670909       -1.6387756139        1.1132609304
 H          3.4366029777       -1.3249907001        2.3918701947
 H          5.0737922452       -2.1394334706       -2.8231564693
 H          3.3642256697       -1.7051582096       -2.7773286355
 H          5.4060504317       -0.8614855931       -0.6754208203
 H          4.9615768990        0.1051530553       -2.0924548501
 O          2.8932675531        0.9951764365       -1.3682881398
 C          1.8309234242        1.7448982244       -0.8740934129
 O          1.4177516258        2.6052752699       -1.6720012890
 O          1.4370553418        0.0511529208        2.3025895203
 C          0.2292734508        2.2605811586        1.0215550624
 C         -0.9174114043        2.3518985331        0.0485891808
 C         -1.2621269470        3.5211652875       -0.6164479975
 C         -2.3074643878        3.5261590376       -1.5222122925
 C         -3.0417797277        2.3792296065       -1.7626238519
 C         -2.7090188811        1.2051203832       -1.0974952783
 C         -1.6469431440        1.1974787553       -0.2080580819
 H         -1.3830980586        0.2794260986        0.2988067337
 N         -3.4320273161        0.0189352848       -1.3109802670
 S         -3.9068765436       -0.8742424507        0.0259595567
 O         -5.0770112901       -1.6020023628       -0.4192277434
 O         -4.0863107352       -0.0322438949        1.1854337506
 C         -2.5935780781       -2.0424826723        0.3004999946
 C         -2.0400468180       -2.1634704536        1.5592060753
 C         -1.0723026183       -3.1312615813        1.7763065335
 C         -0.6784104791       -3.9573550599        0.7352986126
 C         -1.2354467695       -3.8152756956       -0.5267922031
 C         -2.2054923297       -2.8516602834       -0.7491135536
 H         -2.6703044239       -2.7184281209       -1.7118510155
 H         -0.9196874962       -4.4552654845       -1.3349551305
 H          0.0670442887       -4.7168648150        0.9111499308
 H         -0.6307488956       -3.2327536642        2.7550367122
 H         -2.3719619048       -1.4989020373        2.3413612643
 H         -4.1873826777        0.1056599393       -1.9760904687
 H         -3.8639196900        2.3877506395       -2.4626300498
 H         -2.5585258103        4.4375281862       -2.0436215566
 H         -0.6930909135        4.4197192576       -0.4438827204
 H         -0.1055055729        1.6466752251        1.8745676617
 C          0.6354116380        3.6083706893        1.5983303576
 C          1.9780553789        3.7914625943        2.2391675213
 C          1.6549182867        4.5020238310        0.9608202927
 H          1.4890849747        5.5689853059        0.9978831599
 H          2.1220558263        4.1660343238        0.0489594985
 H          2.0408023878        4.3678100064        3.1499015723
 H          2.6648290412        2.9583129581        2.1997452146
 H         -0.2014096404        4.1004616586        2.0856629149
