  62
        -98.94051126
 C          1.9400311816        1.4244705839       -0.3509369336
 C          1.7073606255        0.2091767013        0.3385363756
 C          2.8948549630       -0.4208750913        0.9336685461
 C          4.0894953931        0.1917396930        0.8652713087
 C          5.3828124037       -0.3205997406        1.4383022364
 C          6.1134926375       -1.3209156824        0.5317230563
 C          5.4715189125       -2.7059382883        0.4375820769
 H          6.1980842486       -3.3623395878       -0.0455289264
 H          5.3003923859       -3.0945642646        1.4419976684
 C          4.1624763681       -2.7449519940       -0.3632583255
 H          4.0815573740       -1.8407893203       -0.9711128091
 H          4.1828943884       -3.5920003806       -1.0525410281
 C          2.9006934335       -2.8834954983        0.4888498889
 H          2.0360564225       -2.8548156617       -0.1791726883
 H          2.9042769685       -3.8512528353        0.9951449627
 C          2.7286894915       -1.7808293057        1.5417897309
 H          3.4384886702       -1.9246195621        2.3559764799
 H          1.7156644138       -1.8419205467        1.9478078123
 H          6.1974368087       -0.8892702162       -0.4685155997
 H          7.1250142513       -1.4390715936        0.9272111478
 H          5.1978718171       -0.7768330875        2.4113660712
 H          6.0270422595        0.5499797106        1.5800413895
 O          4.2555752933        1.4007901603        0.2645048302
 C          3.1972772525        2.0334385192       -0.3693347972
 O          3.4950029252        3.1253300794       -0.8939054017
 O          0.5807004592       -0.3328299526        0.4582768454
 C          0.8176436287        2.1606515088       -1.0617594452
 C         -0.4162865603        2.1873085675       -0.1925469229
 C         -0.3114999152        2.7126147930        1.0932536051
 C         -1.4015826393        2.7388345144        1.9407978196
 C         -2.6305230840        2.2600183991        1.5199852935
 C         -2.7495583990        1.7454173057        0.2371280465
 C         -1.6493166566        1.7134329503       -0.6121923458
 H         -1.7596233246        1.2884534401       -1.5977111186
 N         -4.0061415482        1.2775203129       -0.2022736098
 S         -4.6818246928       -0.0651816600        0.5351689225
 O         -6.0172746808       -0.1750459388       -0.0081881082
 O         -4.5835588670        0.0839329540        1.9642438271
 C         -3.7086667501       -1.4546417611       -0.0195479917
 C         -4.2733491703       -2.3627101355       -0.8945862964
 C         -3.5039245546       -3.4185144362       -1.3552010081
 C         -2.1850276351       -3.5421339407       -0.9436597008
 C         -1.6333937768       -2.6195277973       -0.0689477300
 C         -2.3990692415       -1.5649803930        0.4019090654
 H         -1.9751843525       -0.8332617558        1.0701555130
 H         -0.6039317538       -2.6885886629        0.2434771950
 H         -1.5829169512       -4.3600585422       -1.3075860539
 H         -3.9313994891       -4.1375457496       -2.0356503628
 H         -5.3005619324       -2.2237193849       -1.1910849153
 H         -4.0602554098        1.1590688514       -1.2046130578
 H         -3.4875978490        2.2586327904        2.1730573185
 H         -1.2974616678        3.1390884509        2.9383813645
 H          0.6478064361        3.0868632234        1.4261387178
 H          1.1768898695        3.1979901993       -1.1646526386
 C          0.5495498607        1.6496836415       -2.4708878619
 C          1.6125563812        0.9419212609       -3.2556205037
 C          0.4131926370        0.1873905410       -2.7705717848
 H         -0.3232386113       -0.1235284713       -3.4975533593
 H          0.5325915366       -0.5005429153       -1.9489133032
 H          1.6970206866        1.1568735837       -4.3104123827
 H          2.5621760622        0.7671034092       -2.7708993351
 H         -0.0863704708        2.3262735085       -3.0339347944
