  62
        -98.93956240
 C         -2.2791773570       -0.8948745624        0.6420448293
 C         -3.4236129883       -0.8923970299       -0.1930521954
 C         -4.4338756790        0.1358598699        0.1025829239
 C         -4.2274471496        1.0025840968        1.1094353940
 C         -5.1448063231        2.1332005429        1.4734397004
 C         -4.7647967761        3.4210603372        0.7293992757
 C         -4.5693434865        3.2317151715       -0.7749841669
 H         -4.3355937890        4.2113913898       -1.1975456286
 H         -3.6978545425        2.5942745941       -0.9429762192
 C         -5.7821580237        2.6361655031       -1.5036129253
 H         -6.6750002960        2.7462463349       -0.8871666456
 H         -5.9503287566        3.2018087000       -2.4224137245
 C         -5.6219662172        1.1691530675       -1.9061597306
 H         -4.6792524709        1.0375551532       -2.4430703251
 H         -6.4308224749        0.9158789794       -2.5965539802
 C         -5.6670987982        0.1544375980       -0.7569741930
 H         -6.5568269841        0.3264554010       -0.1482547688
 H         -5.7390175569       -0.8436668294       -1.1983807746
 H         -5.5443269543        4.1643117148        0.9065200268
 H         -3.8305985965        3.8006957026        1.1501580011
 H         -6.1692029810        1.8529147019        1.2358753322
 H         -5.0646572479        2.3076474403        2.5477253461
 O         -3.1184639541        0.9705783307        1.8929175352
 C         -2.1272312317        0.0289304604        1.6811609609
 O         -1.1738074945        0.1069568047        2.4839773686
 H          1.4336927033       -1.1071988158        0.7198592069
 C          1.1067719440       -1.1110633768       -0.3094481298
 C         -0.1969003070       -1.4718495043       -0.6195822168
 C         -0.6013115803       -1.4492846477       -1.9504595538
 C          0.2833515601       -1.0662770371       -2.9415781815
 C          1.5811072470       -0.7025887779       -2.6288590712
 C          1.9975932146       -0.7285096469       -1.3026708574
 N          3.3268695035       -0.4122449274       -0.9708498179
 S          3.6581140628        0.3696449680        0.4878418120
 O          3.5841830869       -0.5923611055        1.5582887618
 O          2.8370985370        1.5532152395        0.6175891183
 C          5.3615920086        0.8199668964        0.2117260909
 C          6.3253238873       -0.1653119537        0.3188011083
 C          7.6497816159        0.1641374578        0.0797678981
 C          7.9873622834        1.4659699651       -0.2602610968
 C          7.0098868075        2.4442343540       -0.3616119865
 C          5.6826180912        2.1209330588       -0.1253139808
 H          4.8896059615        2.8490466186       -0.1852406351
 H          7.2754057038        3.4559437658       -0.6228327103
 H          9.0191563680        1.7202498632       -0.4446222306
 H          8.4127186752       -0.5932026496        0.1603581622
 H          6.0163096832       -1.1599006910        0.5947835993
 H          3.8200989550        0.0297436129       -1.7353358241
 H          2.2692711686       -0.4038983034       -3.4051949958
 H         -0.0427239753       -1.0467062225       -3.9706288189
 H         -1.6172246672       -1.7177681704       -2.1952194698
 C         -1.1369398978       -1.8873739432        0.4874474772
 H         -0.5745279081       -1.8361327546        1.4303494082
 C         -1.6051119784       -3.3166486148        0.2895090390
 C         -0.6546232584       -4.4332610367        0.5945148359
 C         -1.8320251181       -4.1848862834        1.4881664501
 H         -2.6535730540       -4.8850378457        1.4687032222
 H         -1.6513328843       -3.7502500203        2.4610941577
 H         -0.6654511013       -5.3065544283       -0.0392147405
 H          0.3255393551       -4.1668504313        0.9619989529
 H         -2.2780466127       -3.4388912534       -0.5482865724
 O         -3.6193276276       -1.6975658045       -1.1411388621
