  62
        -98.93679306
 C          2.4176150461        1.2378213787        0.1055137402
 C          2.3081880063       -0.0475221210       -0.4800262327
 C          3.5777689429       -0.6815937791       -0.8737136061
 C          4.7380883321       -0.0369943830       -0.6582914739
 C          6.0997002746       -0.5901785019       -0.9619028864
 C          6.6780262909       -1.3353556334        0.2492707469
 C          5.7125037747       -2.3434426292        0.8725653754
 H          6.2380223038       -2.8298738798        1.6971074631
 H          4.8645983717       -1.8064122409        1.3040443106
 C          5.1915841634       -3.4096022741       -0.1011843563
 H          5.8366798542       -3.4564901927       -0.9792285145
 H          5.2386834801       -4.3844630815        0.3885598796
 C          3.7426879069       -3.2065001070       -0.5486035486
 H          3.1029222057       -3.0650763151        0.3264001178
 H          3.4105722234       -4.1186592864       -1.0516372618
 C          3.4989618383       -2.0392646208       -1.5135537076
 H          2.4773827773       -2.1321646914       -1.8947429362
 H          4.1880166663       -2.1085252089       -2.3579783851
 H          6.9451685345       -0.6004632114        1.0120843706
 H          7.5895730663       -1.8474108758       -0.0639002041
 H          6.0312726712       -1.2603370602       -1.8165367118
 H          6.7596408087        0.2412959985       -1.2148689568
 O          4.8044094642        1.1895010653       -0.0800102146
 C          3.6557722548        1.8460839610        0.3294740998
 O          3.8647127545        2.9459203319        0.8784747169
 O          1.2185859619       -0.6486987711       -0.6688519231
 C          1.1950713791        2.0128779897        0.5662722566
 C          0.2318425719        1.0951358041        1.2790594285
 C          0.6696447650        0.4301140895        2.4217419801
 C         -0.1680541111       -0.4326348952        3.1003998997
 C         -1.4617873791       -0.6451125509        2.6585225405
 C         -1.9143608618        0.0254100758        1.5281121886
 C         -1.0699918707        0.8928845619        0.8493956397
 H         -1.4355303970        1.3771013204       -0.0395762742
 N         -3.2442244170       -0.1388069887        1.1023655767
 S         -3.6811600013        0.0030476213       -0.5190194966
 O         -2.9667341624       -0.9506820312       -1.3369593729
 O         -3.5895067329        1.3868770394       -0.9114452810
 C         -5.3980382098       -0.4671707098       -0.3948377213
 C         -6.3127114587        0.4745709084        0.0369854317
 C         -7.6433149961        0.1087057726        0.1625592300
 C         -8.0358861242       -1.1857777732       -0.1442622204
 C         -7.1075831770       -2.1193985235       -0.5795326030
 C         -5.7747740278       -1.7599552078       -0.7054871493
 H         -5.0197068433       -2.4491321034       -1.0486592989
 H         -7.4160249112       -3.1238289149       -0.8211741693
 H         -9.0722618193       -1.4680188023       -0.0465547070
 H         -8.3684273504        0.8327720555        0.4975001542
 H         -5.9627943714        1.4701512051        0.2542709487
 H         -3.6837686374       -0.9507142369        1.5144741810
 H         -2.1150977862       -1.3253499674        3.1837695107
 H          0.1895499186       -0.9504177012        3.9780382900
 H          1.6854323422        0.5885313130        2.7599761450
 H          1.5780643472        2.7365448977        1.3057736136
 C          0.5330789924        2.8283572594       -0.5346621844
 C          1.3138726128        3.3445452986       -1.7050131913
 C          0.2891600548        2.2701521621       -1.9032309071
 H         -0.6386435009        2.5191071324       -2.3987737560
 H          0.6234644448        1.2630574850       -2.0982808777
 H          1.0960368253        4.3381837239       -2.0665308929
 H          2.3578639432        3.0742993454       -1.7708950638
 H         -0.2322374436        3.4916543173       -0.1419034117
