  62
        -98.93012700
 C         -2.2116384416        0.4758004208        0.2742228533
 C         -3.4515929363        1.0258819437        0.6877650174
 C         -4.6481654396        0.5609232349       -0.0287884232
 C         -4.5024474732       -0.3071899942       -1.0459036498
 C         -5.6237010007       -0.9412619639       -1.8190684302
 C         -6.2597908640       -2.0739421248       -0.9879489226
 C         -7.7084250524       -1.8150556769       -0.5732590920
 H         -8.3575852763       -1.9691232396       -1.4377190904
 H         -7.9727769022       -2.5651198868        0.1752099760
 C         -8.0031631057       -0.4219256805       -0.0089664221
 H         -8.1003685897        0.2927166331       -0.8275103660
 H         -8.9805028301       -0.4754940138        0.4752757953
 C         -6.9837543075        0.1233638943        0.9995690880
 H         -6.4454474195       -0.6927043924        1.4823466780
 H         -7.5304408437        0.6506362515        1.7840084679
 C         -5.9718155769        1.1237308970        0.4101252010
 H         -6.4335957368        1.6622234072       -0.4220149425
 H         -5.7202038886        1.8605005731        1.1787829614
 H         -5.6471986177       -2.2305951360       -0.0974037918
 H         -6.2280143325       -3.0043977025       -1.5568263786
 H         -5.1980916230       -1.3386184831       -2.7406160602
 H         -6.3667889757       -0.1887122174       -2.0733244328
 O         -3.2925331499       -0.7731258423       -1.4480921219
 C         -2.1160147845       -0.3985000911       -0.8089853158
 O         -1.0937317492       -0.9047310072       -1.3061503283
 O         -3.5515199320        1.8750006056        1.6138615445
 C         -0.9652979900        0.9237940764        1.0153005265
 C          0.1293280507        1.2929990936        0.0470598240
 C         -0.0745710054        2.3683342697       -0.8146813856
 C          0.9018827738        2.7487174338       -1.7139043494
 C          2.1119871586        2.0786472794       -1.7593238441
 C          2.3221250563        0.9998379360       -0.9096872280
 C          1.3331659212        0.6113869707       -0.0165263724
 H          1.5173901811       -0.2421319313        0.6143105939
 N          3.5281145831        0.2822234830       -0.9461129219
 S          4.1414618366       -0.3226925327        0.5044292076
 O          3.5623666999       -1.6165463981        0.7641147231
 O          3.9943140513        0.6630712290        1.5522958897
 C          5.8628988142       -0.5107761858        0.0752022283
 C          6.7524183297        0.4993878312        0.3901648192
 C          8.0826729897        0.3590122520        0.0271289780
 C          8.4982758428       -0.7812746069       -0.6439819012
 C          7.5941663717       -1.7869603622       -0.9527061514
 C          6.2628352886       -1.6535860741       -0.5915590011
 H          5.5263268395       -2.4117800277       -0.8017083808
 H          7.9213336166       -2.6735149073       -1.4716890928
 H          9.5338968639       -0.8884723154       -0.9254842076
 H          8.7883982973        1.1374592156        0.2687980920
 H          6.3857854112        1.3634333438        0.9208174653
 H          4.2418259016        0.7335534515       -1.5012711228
 H          2.8801941065        2.3796322104       -2.4555438542
 H          0.7261001148        3.5816964649       -2.3781330668
 H         -1.0171476840        2.8977741470       -0.7721827598
 H         -1.2746300719        1.8452177652        1.5380874234
 C         -0.4999466440       -0.0457615010        2.0912204793
 C         -1.4765357263       -0.8981188374        2.8429500142
 C         -0.5066978265       -1.5305052862        1.8924747702
 H          0.3185956071       -2.1014397086        2.2937495817
 H         -0.8741100049       -1.9075325644        0.9506895421
 H         -1.3270707970       -1.0378066443        3.9029493345
 H         -2.5148487489       -0.8430270283        2.5497671538
 H          0.3285729308        0.3590441533        2.6666218016
