  62
        -98.93794950
 C          2.2861299290       -0.6932888802        0.3726568032
 C          3.6227366358       -1.1270791487        0.1699803482
 C          4.4914512876       -0.2307435456       -0.6030407794
 C          3.9738516004        0.8985371677       -1.1187482453
 C          4.7525330546        1.9265574673       -1.8861485599
 C          5.3196725212        3.0052650478       -0.9524549907
 C          6.0505856470        2.4448623263        0.2677507672
 H          6.4324893805        3.2952152401        0.8367217039
 H          5.3316542868        1.9277229736        0.9073666350
 C          7.2071908481        1.4924829492       -0.0664298593
 H          8.0662096849        1.7532473677        0.5553249878
 H          7.5078500907        1.6255801743       -1.1062445814
 C          6.9054497982        0.0144184886        0.1880138928
 H          7.8457822667       -0.5399058916        0.1282542482
 H          6.5165999373       -0.1109687003        1.2017942616
 C          5.9242535408       -0.6439115773       -0.7901142325
 H          6.2475678547       -0.4580470668       -1.8163827320
 H          5.9500079526       -1.7230143235       -0.6119727505
 H          5.9991942941        3.6365869093       -1.5278440943
 H          4.4933553684        3.6275574209       -0.6009809767
 H          4.0822052271        2.3972565616       -2.6073881536
 H          5.5608977408        1.4347326821       -2.4239450455
 O          2.6754833388        1.2542418653       -0.9565630970
 C          1.7976818317        0.4810091752       -0.2037363058
 O          0.6495356440        0.9578485947       -0.1371350373
 O          4.0685472821       -2.2177000126        0.6161661536
 C          1.3771416776       -1.6092038045        1.1748531557
 C          0.1117987880       -1.8755731109        0.4015229460
 C          0.1508004439       -2.7529781959       -0.6782330727
 C         -0.9788209311       -2.9845891675       -1.4396547081
 C         -2.1694762387       -2.3444337300       -1.1429244444
 C         -2.2149044059       -1.4584779361       -0.0755876598
 C         -1.0808502207       -1.2362170089        0.6960724148
 H         -1.1192394861       -0.5292035193        1.5100700076
 N         -3.4196234547       -0.8055705436        0.2473699958
 S         -4.3998396083       -0.2678360076       -1.0172484354
 O         -5.1425564702       -1.3951303526       -1.5260601557
 O         -3.6257953817        0.4656722705       -1.9935932856
 C         -5.4975958601        0.8254651229       -0.1368769428
 C         -6.6657612913        0.3177160007        0.3987317618
 C         -7.5012535072        1.1661337934        1.1078542230
 C         -7.1559165371        2.4994946281        1.2697443363
 C         -5.9799576607        2.9947457197        0.7260085606
 C         -5.1393188205        2.1515347733        0.0165302550
 H         -4.2193657498        2.4956211514       -0.4298056260
 H         -5.7145181914        4.0322066507        0.8514607915
 H         -7.8076548172        3.1587645143        1.8210104423
 H         -8.4170270826        0.7858761044        1.5307395838
 H         -6.8950341476       -0.7229404484        0.2398242532
 H         -3.2686847225       -0.0617851413        0.9156581403
 H         -3.0548170213       -2.5053676945       -1.7366478116
 H         -0.9343909005       -3.6660553286       -2.2762692178
 H          1.0840665860       -3.2426566769       -0.9214369739
 H          1.9389688382       -2.5552429064        1.2395862067
 C          1.1223673397       -1.1620789600        2.6063650885
 C          2.2200960621       -0.5326716165        3.4097097341
 C          1.0219934411        0.2755027495        3.0160138342
 H          0.3082605730        0.5357592832        3.7843648825
 H          1.1342879472        1.0293535965        2.2529395816
 H          2.3343106992       -0.8193682538        4.4441121913
 H          3.1545442056       -0.3390839357        2.9031634069
 H          0.4787167612       -1.8606735119        3.1325874278
