  62
        -98.94124479
 C         -2.4980717498       -1.3673898309       -0.0148448894
 C         -3.2298978999       -0.6932982908        0.9981888105
 C         -4.0876319501        0.4121335889        0.5603004702
 C         -4.1527131502        0.7253473887       -0.7459925998
 C         -4.9979182704        1.8088194584       -1.3585911400
 C         -4.3580470507        3.2029159585       -1.3064841403
 C         -4.3287423007        3.8534496288        0.0771338495
 H         -4.0611726209        4.9019456988       -0.0680091007
 H         -5.3291366207        3.8289414487        0.5103106796
 C         -3.3273203306        3.2212255192        1.0542124096
 H         -2.6013752205        2.6214507192        0.4989041497
 H         -2.7630437807        4.0090694394        1.5586747394
 C         -3.9618373004        2.3523421693        2.1405702598
 H         -3.1588375403        1.9259159096        2.7473221799
 H         -4.5820100805        2.9741216993        2.7899963797
 C         -4.8187293102        1.1969753790        1.6070329101
 H         -5.7586073403        1.5785062788        1.2086160000
 H         -5.0368111401        0.5206867292        2.4370820402
 H         -3.3399655707        3.1364592186       -1.6981749404
 H         -4.9298455908        3.8492636183       -1.9763892505
 H         -5.9711944004        1.8356061983       -0.8678365600
 H         -5.1428602204        1.5354845981       -2.4060033100
 O         -3.4451955401        0.0525221886       -1.6896571497
 C         -2.5852431099       -0.9882075312       -1.3545180095
 O         -1.9854695499       -1.4662171513       -2.3366303994
 O         -3.1758842698       -1.0136455605        2.2153508205
 C         -1.6076330096       -2.5111795406        0.4409807908
 C         -0.1981418997       -2.0322441203        0.6785340407
 C          0.4443419404       -2.2584387900        1.8897808507
 C          1.7301071803       -1.7914926797        2.1028328605
 C          2.4003213702       -1.0924646398        1.1149521604
 C          1.7645484401       -0.8560081802       -0.0969541996
 C          0.4771274902       -1.3261842704       -0.3080306495
 H         -0.0122273699       -1.1395775807       -1.2531323595
 N          2.4370161899       -0.1462176603       -1.1107139198
 S          3.0099042197        1.3831658299       -0.7096489702
 O          2.2293972696        1.9763676000        0.3524457497
 O          3.0617148295        2.1143289197       -1.9569733503
 C          4.6716242197        1.0720731203       -0.1510248801
 C          5.0693526097        1.4907304007        1.1034404298
 C          6.3708858998        1.2414092910        1.5110313398
 C          7.2461314098        0.5823141510        0.6614665499
 C          6.8311708599        0.1700381506       -0.5963062900
 C          5.5321527898        0.4170297403       -1.0103315200
 H          5.1701061399        0.1173390400       -1.9796316299
 H          7.5143985400       -0.3424223294       -1.2541754799
 H          8.2578319699        0.3887895212        0.9812761299
 H          6.6951951997        1.5613022812        2.4882290397
 H          4.3517045496        1.9942074507        1.7314630897
 H          1.9119808799       -0.1038132405       -1.9733539798
 H          3.4004053301       -0.7237514996        1.2751861803
 H          2.2157095904       -1.9726832394        3.0494391106
 H         -0.0780356195       -2.7884026799        2.6727235008
 H         -2.0220626595       -2.8086022405        1.4173046409
 C         -1.6817958194       -3.7284807108       -0.4709318690
 C         -0.5519758594       -4.1944691208       -1.3346262589
 C         -0.9285295392       -4.9760366906       -0.1141769687
 H         -1.4179827390       -5.9301028208       -0.2369045385
 H         -0.2618874192       -4.9244771903        0.7334471713
 H         -0.8005022193       -4.5907972611       -2.3073372988
 H          0.3707146505       -3.6364245707       -1.3181790290
 H         -2.6789903794       -3.8624067811       -0.8785410389
