  62
        -98.94434656
 C          2.2398604647        1.0860344384        0.2781463121
 C          2.3878265281       -0.0250342215       -0.5870440352
 C          3.2729963251       -1.0955570926       -0.1082724549
 C          3.8447145052       -1.0087380338        1.1055942196
 C          4.7410482938       -2.0355035878        1.7425640159
 C          6.2112903517       -1.9345026777        1.3133016056
 C          6.5063071179       -2.3977318194       -0.1138660833
 H          7.5910562190       -2.4802698938       -0.2057440986
 H          6.0901561263       -3.3943979884       -0.2642160794
 C          5.9892957801       -1.4514945381       -1.2064163669
 H          6.7698933153       -1.2983212220       -1.9548854776
 H          5.7692617227       -0.4752387777       -0.7685209300
 C          4.7477066732       -1.9530634661       -1.9438502572
 H          4.9915471318       -2.8629957938       -2.4966885316
 H          4.4461822491       -1.1904364943       -2.6663529822
 C          3.5474588885       -2.2432061488       -1.0331931387
 H          2.6638520596       -2.3843481368       -1.6609652644
 H          3.7179999460       -3.1571597378       -0.4644478022
 H          6.7934935194       -2.5523931342        2.0007221748
 H          6.5401205694       -0.9000738278        1.4360731543
 H          4.3641906641       -3.0356369929        1.5258640428
 H          4.6845232636       -1.8694847029        2.8205606506
 O          3.6464047042        0.0555868337        1.9268629871
 C          2.8633575424        1.1249484292        1.5304045605
 O          2.7985711554        2.0451130243        2.3697218484
 O          1.8233358388       -0.1453760438       -1.7081807651
 C          1.3803014958        2.2977968582       -0.0554443886
 C         -0.0738207759        1.9791195949        0.1983029152
 C         -0.7470682926        2.5426952392        1.2760132096
 C         -2.0666870697        2.2139289071        1.5319178011
 C         -2.7389342193        1.3145017355        0.7235783776
 C         -2.0703991388        0.7366800767       -0.3473968771
 C         -0.7528633529        1.0795316018       -0.6110813176
 H         -0.2325676253        0.6103523359       -1.4328315611
 N         -2.7388405672       -0.1970252533       -1.1638652520
 S         -3.4035976238       -1.5308894302       -0.3853565661
 O         -2.6908985219       -1.8444102410        0.8326731358
 O         -3.4582882261       -2.5739221000       -1.3865531073
 C         -5.0637202439       -1.0091550269       -0.0062035875
 C         -5.5184365845       -1.0477582141        1.2972606825
 C         -6.8165493786       -0.6421921545        1.5663058059
 C         -7.6323555878       -0.2085344113        0.5325587838
 C         -7.1611366041       -0.1781677127       -0.7716444311
 C         -5.8649330754       -0.5829227864       -1.0474674585
 H         -5.4604556079       -0.5779999670       -2.0458041960
 H         -7.7984206410        0.1599200505       -1.5727300752
 H         -8.6415325137        0.1072685609        0.7449014459
 H         -7.1844277330       -0.6655142147        2.5795433698
 H         -4.8454303798       -1.3867739608        2.0687672019
 H         -2.1758347759       -0.5028740924       -1.9458880048
 H         -3.7645044795        1.0487976969        0.9221533542
 H         -2.5765746338        2.6599667663        2.3722280312
 H         -0.2196564833        3.2261718811        1.9258095356
 H          1.6804795377        3.0770484467        0.6575027024
 C          1.6087831967        2.8205605493       -1.4598573059
 C          1.2127416997        4.2290092224       -1.7813463323
 C          2.6623888893        3.8598530487       -1.6904737145
 H          3.2429298381        3.8112393802       -2.5995609199
 H          3.2237905500        4.2014849989       -0.8327956873
 H          0.7951619182        4.4369053140       -2.7543896594
 H          0.7911129502        4.8229688532       -0.9846549341
 H          1.4779009482        2.0712406043       -2.2288947357
