  62
        -98.93582696
 C          1.7459791604        1.0069416788       -0.9876164996
 C          1.7014132402       -0.3053553911       -0.4533112094
 C          3.0068067901       -0.9637640514       -0.2868447996
 C          4.1320607202       -0.3472428417       -0.6875915599
 C          5.5272008401       -0.9057019720       -0.6116775002
 C          6.2049726904       -0.7037268120        0.7504420096
 C          5.6651347905       -1.5806246117        1.8810205299
 H          5.6659564802       -2.6233485117        1.5620964800
 H          6.3650929907       -1.4945070617        2.7146302097
 C          4.2634550507       -1.1906194813        2.3711710501
 H          4.2517740809       -1.1740178312        3.4634185401
 H          4.0279874008       -0.1779918513        2.0350691801
 C          3.1473227804       -2.1334785511        1.9206188105
 H          3.3003364103       -3.1191789611        2.3656073906
 H          2.1976510105       -1.7385588309        2.2907932407
 C          3.0319908200       -2.2962041413        0.3992129006
 H          3.8535479098       -2.9048731615        0.0224771904
 H          2.0885863398       -2.8006946611        0.1783979808
 H          6.1172427107        0.3483978381        1.0315951795
 H          7.2670719903       -0.9254227322        0.6224951494
 H          5.5119923498       -1.9676125820       -0.8581482301
 H          6.1136321400       -0.3808171022       -1.3689323904
 O          4.1252285003        0.8936644683       -1.2447865201
 C          2.9471340205        1.6081579785       -1.3715169499
 O          3.0950416506        2.7552244384       -1.8427524601
 H         -1.6836317296        0.3395208497       -0.1720226887
 C         -1.3126748192        1.0885754097        0.5011839011
 C         -0.2510947191        1.9063726794        0.1516534308
 C          0.2214996913        2.8073185594        1.1072334806
 C         -0.3499621084        2.8890661897        2.3614257607
 C         -1.4316450785        2.0903122000        2.6904202610
 C         -1.9109005989        1.1891290900        1.7507427513
 N         -3.0021840190        0.3532317303        2.0347853216
 S         -4.1713290994        0.1437421104        0.8555077719
 O         -4.3051394993        1.3264395203        0.0354066518
 O         -5.3587310593       -0.2549186792        1.5834567622
 C         -3.6200528199       -1.2295840099       -0.1324042980
 C         -2.9715373500       -2.2845467799        0.4773896319
 C         -2.5824735104       -3.3652062001       -0.2970470280
 C         -2.8541102307       -3.3771311502       -1.6566583579
 C         -3.5110744006       -2.3120793602       -2.2522995679
 C         -3.8993095802       -1.2258965400       -1.4846281880
 H         -4.3970658101       -0.3699598999       -1.9112091380
 H         -3.7166597009       -2.3191571902       -3.3105660479
 H         -2.5472660811       -4.2196386704       -2.2563747679
 H         -2.0637574805       -4.1917866402        0.1612545220
 H         -2.7671416497       -2.2396993198        1.5340744919
 H         -3.4119953488        0.4786402705        2.9488139817
 H         -1.8931684383        2.1592235102        3.6640050711
 H          0.0398162919        3.5888115897        3.0854449305
 H          1.0611739014        3.4407598992        0.8536957203
 C          0.4909716406        1.8578289091       -1.1595350394
 H          0.8729810707        2.8761714890       -1.3337090896
 C         -0.2363313398        1.4849354991       -2.4453945592
 C         -0.9486091702        0.1909682892       -2.6948661688
 C         -1.7239255999        1.4737847894       -2.6330721588
 H         -2.1102890800        1.8714902794       -3.5605253888
 H         -2.3629692996        1.6655858696       -1.7847432187
 H         -0.8124406005       -0.2750085809       -3.6606496588
 H         -1.0142090901       -0.5197339707       -1.8873076987
 H          0.3378053601        1.8575826588       -3.2913238394
 O          0.6501547102       -0.9102019708       -0.1287126491
