  62
        -98.94122714
 C         -2.5223312831       -0.2804569876       -0.0192673322
 C         -2.1138837440       -1.2500207438       -0.9616251092
 C         -1.4254507620       -2.4422775144       -0.4361766459
 C         -1.2344173505       -2.5578044796        0.8914154990
 C         -0.6004407813       -3.6529935457        1.7250597199
 C          0.1021391673       -4.8294236162        1.0552552574
 C          1.4445561943       -4.4781774151        0.4098952249
 H          2.1795749677       -4.3370835569        1.2061223317
 H          1.7697550457       -5.3241437832       -0.1992473517
 C          1.4599195006       -3.2137637251       -0.4462291237
 H          1.1621620869       -2.3490719051        0.1512577513
 H          2.4910950995       -3.0305678286       -0.7636597500
 C          0.6001538388       -3.2590362794       -1.7069687073
 H          0.7672620466       -2.3188062412       -2.2416783056
 H          0.9289608874       -4.0787458197       -2.3503362876
 C         -0.9102422736       -3.4024704170       -1.4702732083
 H         -1.4224432670       -3.1476663696       -2.4033946632
 H         -1.1722902626       -4.4281302136       -1.2221915641
 H         -0.5648574488       -5.3003247350        0.3389272835
 H          0.2966243553       -5.5671868712        1.8383381181
 H          0.1016146681       -3.1475516422        2.3962229242
 H         -1.4069411240       -4.0405886238        2.3573329011
 O         -1.6820027177       -1.6104525244        1.7673175708
 C         -2.2692657370       -0.4336329660        1.3421022632
 O         -2.5371917435        0.3668389170        2.2596951626
 H         -0.5047628967        0.9756454475       -1.0088219860
 C         -0.7720591796        1.8809085397       -0.4827754325
 C         -2.1033990030        2.1210799645       -0.1668228494
 C         -2.4264695709        3.3044172540        0.4826064772
 C         -1.4288809388        4.1954260550        0.8428998387
 C         -0.0986175308        3.9180937012        0.5874785331
 C          0.2312693830        2.7456064071       -0.0842903452
 N          1.5666222138        2.4107252693       -0.3726905951
 S          1.9588079642        0.7631164867       -0.3358227161
 O          1.6859890119        0.2015959986       -1.6346833201
 O          1.3338233393        0.1234333028        0.7995980631
 C          3.7237040700        0.8594024953       -0.0962733084
 C          4.5290145634        1.1120511377       -1.1909276663
 C          5.8977903121        1.2222519559       -1.0044345118
 C          6.4357823855        1.0789306349        0.2660380719
 C          5.6155845685        0.8224132900        1.3544339793
 C          4.2453681250        0.7129399260        1.1748752883
 H          3.5681805099        0.5070506604        1.9885988277
 H          6.0362106249        0.7072792723        2.3403637384
 H          7.5013787258        1.1644505015        0.4086380417
 H          6.5385638078        1.4182476237       -1.8488541943
 H          4.0652119482        1.2052426051       -2.1589926993
 H          2.2322230953        2.9664333114        0.1474109406
 H          0.6777568872        4.5970344190        0.9058045098
 H         -1.6909610922        5.1086968651        1.3554710643
 H         -3.4541814898        3.5201699992        0.7249540606
 C         -3.0964583343        1.0373187260       -0.5123553282
 H         -3.1475361895        0.9459377378       -1.6077267207
 C         -4.4872920720        1.2813865957        0.0290533238
 C         -5.4491157055        2.1435524226       -0.7313855789
 C         -5.6577116389        0.6611118047       -0.6713408940
 H         -6.4698091874        0.2757289444       -0.0735613759
 H         -5.4518913658        0.0772911790       -1.5567103494
 H         -6.1234755847        2.7773435533       -0.1757780792
 H         -5.1082264062        2.5689925250       -1.6631134459
 H         -4.5111664020        1.3136700936        1.1122673729
 O         -2.3176581750       -1.1259673645       -2.2016885741
