  62
        -98.93466323
 C         -1.9490963010       -0.9342217596       -0.2810083603
 C         -2.5752550910       -0.2825828492        0.8116956095
 C         -2.8687581307        1.1504881609        0.6626786391
 C         -2.5038546204        1.7765573005       -0.4686612610
 C         -2.6382203500        3.2369421404       -0.8237170814
 C         -3.9467854999        3.9425546008       -0.4443077918
 C         -5.2016812001        3.0606657911       -0.5210169718
 H         -5.9584269699        3.5710289111       -1.1195595420
 H         -4.9661166302        2.1213785109       -1.0243643315
 C         -5.8080098204        2.7650980516        0.8527093482
 H         -6.8513161104        2.4694243318        0.7195603782
 H         -5.8005672802        3.6833673717        1.4436958380
 C         -5.1208568407        1.6542852216        1.6459240086
 H         -5.5739331109        1.6204451820        2.6395178386
 H         -5.3129404109        0.6877092116        1.1725791988
 C         -3.5981734407        1.7975236713        1.8053608288
 H         -3.3090688405        2.8384623713        1.9282092486
 H         -3.2994086010        1.2456804115        2.7007486390
 H         -4.0542719596        4.7907721207       -1.1225193320
 H         -3.8606152500        4.3530762111        0.5606116281
 H         -1.7951887100        3.7692811504       -0.3726101215
 H         -2.4991531399        3.2788033901       -1.9069867414
 O         -1.8948772004        1.1184589801       -1.4935152708
 C         -1.5947178007       -0.2353029700       -1.4341969104
 O         -1.0430316107       -0.6616866304       -2.4685821402
 H          0.7164740590       -1.2029893503       -0.8128306098
 C          0.8328379587       -1.8434630301        0.0488771503
 C         -0.2524052515       -2.5466180997        0.5511442004
 C         -0.0618070318       -3.3724749795        1.6529516006
 C          1.1829583180       -3.4786398596        2.2469586708
 C          2.2531697583       -2.7452296500        1.7687890808
 C          2.0737271886       -1.9208620802        0.6632841505
 N          3.1369898289       -1.1620603706        0.1491509005
 S          2.7922956893        0.3939411293       -0.4179812600
 O          1.7625083093        1.0010670598        0.3955283997
 O          2.5509177495        0.3285619790       -1.8367964200
 C          4.3603793694        1.1941002790       -0.1226782800
 C          5.3642024695        1.0646201786       -1.0640326098
 C          6.5939417996        1.6544384184       -0.8176318998
 C          6.7994335396        2.3580547186        0.3599122901
 C          5.7823635495        2.4806834191        1.2946912099
 C          4.5503389194        1.8924352093        1.0548189099
 H          3.7272017993        1.9678027497        1.7473258698
 H          5.9432025995        3.0309505193        2.2076778998
 H          7.7571531497        2.8164057884        0.5490929701
 H          7.3855801397        1.5635297780       -1.5436251796
 H          5.1531637995        0.5158862584       -1.9671306297
 H          3.9529187088       -1.1701152406        0.7463104806
 H          3.2197543982       -2.8065137701        2.2452824609
 H          1.3165256178       -4.1220660394        3.1031551610
 H         -0.9029431520       -3.9164801792        2.0559582306
 C         -1.6183619814       -2.4023741096       -0.0800609998
 H         -2.3565902816       -2.7721737193        0.6459461401
 C         -1.7102085814       -3.2527965799       -1.3308029096
 C         -1.9738415418       -4.7218329398       -1.1968469593
 C         -3.0357242415       -3.8163141397       -1.7429388397
 H         -3.2680581413       -3.8607462699       -2.7961296197
 H         -3.8879887015       -3.5940763594       -1.1172695098
 H         -1.4738939118       -5.3956953701       -1.8751802091
 H         -2.1112935120       -5.1186402595       -0.2026670792
 H         -1.0409409912       -2.9288779903       -2.1173005296
 O         -2.8776158413       -0.8825884488        1.8791000696
