  62
        -98.93799114
 C          1.6919077901        1.1309959336        0.6452664654
 C          1.8600223443        0.7183482507       -0.7017804131
 C          2.5679551316       -0.5581143470       -0.8965973045
 C          2.9724266924       -1.2768649649        0.1644720544
 C          3.7619781322       -2.5576222176        0.1248654025
 C          2.9329179929       -3.8242399603       -0.1296034783
 C          2.4036905104       -3.9884165567       -1.5550518862
 H          3.2228068470       -3.8663637909       -2.2643924983
 H          2.0446845917       -5.0152968324       -1.6465475934
 C          1.2572524563       -3.0341994339       -1.9172896367
 H          0.8212197432       -2.6257914925       -1.0046681249
 H          0.4636033280       -3.5889339271       -2.4232268768
 C          1.6539384826       -1.8776478307       -2.8342728097
 H          1.9392105653       -2.2675729533       -3.8142371495
 H          0.7797773071       -1.2347184433       -2.9726860000
 C          2.8055824744       -1.0144488941       -2.3045574856
 H          3.7449008116       -1.5642121891       -2.3700023510
 H          2.8771779272       -0.1230600679       -2.9332460740
 H          2.0957237358       -3.8483989528        0.5710278451
 H          3.5761260457       -4.6783651819        0.0942417921
 H          4.5397926920       -2.4766860534       -0.6357337129
 H          4.2422347309       -2.6528601521        1.1013391285
 O          2.7244718020       -0.8825107261        1.4432506104
 C          2.0811912216        0.3166786064        1.7131085486
 O          1.9120320315        0.5374490926        2.9280439637
 H         -1.3037362966        1.2860980595        1.5372787576
 C         -1.3627316604        1.8985222366        0.6451594613
 C         -0.2453006123        2.6210394526        0.2455032595
 C         -0.3363696382        3.4139110595       -0.8915581974
 C         -1.5035705370        3.4468655457       -1.6329463244
 C         -2.6022966810        2.6964826011       -1.2529965802
 C         -2.5314010508        1.9279523926       -0.1012658241
 N         -3.6656952665        1.1533574556        0.2597105931
 S         -3.7539911279       -0.3487713370       -0.4779988154
 O         -3.2099994342       -0.2383856389       -1.8060531006
 O         -5.1300401643       -0.7785179380       -0.3760063714
 C         -2.7495544201       -1.4126228730        0.5470402388
 C         -1.3730893123       -1.3455529985        0.4524747278
 C         -0.6097097825       -2.0970807654        1.3326838454
 C         -1.2261098375       -2.9087773899        2.2723570544
 C         -2.6089765508       -2.9754915800        2.3443656267
 C         -3.3786865678       -2.2118917943        1.4822297307
 H         -4.4563906508       -2.2219567049        1.5068907064
 H         -3.0855075604       -3.6101740945        3.0738601323
 H         -0.6199314824       -3.4863874263        2.9523689633
 H          0.4661942011       -2.0317068859        1.2967719331
 H         -0.9184701697       -0.7114306281       -0.2945909221
 H         -3.7816933521        1.0442359941        1.2578550781
 H         -3.5088624360        2.6840128517       -1.8362026737
 H         -1.5528899860        4.0511278744       -2.5260138267
 H          0.5247048093        3.9744064976       -1.2166008354
 C          1.0353528063        2.4513693465        1.0220061043
 H          0.7783796349        2.3454223475        2.0879566699
 C          1.9556770422        3.6589979297        0.9147594865
 C          3.3904640492        3.5599883958        1.3373179992
 C          3.0467626523        3.7710718102       -0.1051229132
 H          3.2385305706        4.7413782718       -0.5396206402
 H          3.1843522345        2.9524916935       -0.7935588421
 H          3.8230721530        4.3790724508        1.8915662990
 H          3.7527462921        2.5879709084        1.6398371712
 H          1.4389728617        4.5780444089        1.1741988534
 O          1.4728945565        1.3706896409       -1.7034583322
