  62
        -98.93737651
 C          2.5927759477        0.3692974754       -0.0882426855
 C          2.1435777712        1.3889960127       -0.9577593492
 C          1.4820401363        2.5468573454       -0.3354671304
 C          1.3244358130        2.5735049293        0.9992611574
 C          0.7286691869        3.6549147743        1.8680541227
 C         -0.5058282119        4.4023699271        1.3542360581
 C         -1.5224828769        3.5317704146        0.6018636719
 H         -1.2826153140        2.4740371140        0.7336676387
 H         -2.5138297988        3.6959584861        1.0297716635
 C         -1.5920281581        3.8552443774       -0.8923943249
 H         -1.5757885610        4.9396061388       -1.0241261939
 H         -2.5435339052        3.4912759007       -1.2879700343
 C         -0.4816478172        3.2309936438       -1.7337617443
 H         -0.5813750507        2.1415892123       -1.7134185347
 H         -0.6163219700        3.5512306429       -2.7699911124
 C          0.9501343737        3.5780508073       -1.2899204111
 H          1.5988786570        3.5343566956       -2.1691358094
 H          1.0016236146        4.5803569780       -0.8721481303
 H         -0.9843476105        4.8470750301        2.2289701653
 H         -0.1945340250        5.2267127827        0.7139413469
 H          1.5187910667        4.3801871942        2.0881323189
 H          0.4827970282        3.1536722154        2.8079495907
 O          1.7714124857        1.5654109320        1.8013959110
 C          2.3629251889        0.4267179175        1.2856296087
 O          2.6510223898       -0.4338813278        2.1405737245
 O          2.2882720265        1.3340120178       -2.2107500503
 C          3.1696846417       -0.9051265716       -0.6865447303
 C          2.1517257328       -1.9917018020       -0.4395295962
 C          2.4045101239       -3.1753418914        0.2393490386
 C          1.3678805039       -4.0413965750        0.5492515259
 C          0.0616216411       -3.7409292540        0.2064085750
 C         -0.1917253407       -2.5768755392       -0.5036407801
 C          0.8472642746       -1.7303655998       -0.8412439749
 H          0.6342364730       -0.8134711783       -1.3774126959
 N         -1.5402920923       -2.1999172806       -0.7871319400
 S         -2.0657529376       -1.1930110998        0.4789562334
 O         -1.3271126300        0.0513588094        0.4730106531
 O         -2.0197453160       -1.9652411730        1.6945553610
 C         -3.7614390260       -0.8971449838        0.0124998046
 C         -4.6619941436       -1.9389030526        0.1257899284
 C         -5.9757094624       -1.7323533590       -0.2628797783
 C         -6.3639154515       -0.4953679868       -0.7565501276
 C         -5.4482379056        0.5400849453       -0.8641097908
 C         -4.1316891882        0.3393186505       -0.4787676100
 H         -3.3852775162        1.1156536538       -0.5391389514
 H         -5.7526993309        1.5012539055       -1.2459951885
 H         -7.3872581916       -0.3363967010       -1.0577490195
 H         -6.6912924955       -2.5343166956       -0.1799782828
 H         -4.3142324484       -2.8784085830        0.5214895790
 H         -1.5784438449       -1.6404132667       -1.6319206236
 H         -0.7589403490       -4.3769752346        0.4944544257
 H          1.5792744043       -4.9495613224        1.0931644971
 H          3.4091740618       -3.4068659358        0.5539137322
 H          3.2329000028       -0.7208821454       -1.7689850726
 C          4.5501220991       -1.2137425602       -0.1549196082
 C          5.4811283109       -2.0753772065       -0.9535934764
 C          5.7423076238       -0.6053948782       -0.8286403712
 H          6.5668706319       -0.2762243091       -0.2146341306
 H          5.5605285304        0.0225946548       -1.6885105795
 H          6.1309286412       -2.7575313189       -0.4269927492
 H          5.1252520547       -2.4476520567       -1.9022340820
 H          4.5729794935       -1.2950129921        0.9255525711
