  62
        -98.93638547
 C          1.6812751105        1.4368755777        0.3246783952
 C          1.9082968449        0.1946809069        0.9712067442
 C          3.1345995945       -0.5388502061        0.6109942562
 C          3.9571378665       -0.0223642130       -0.3209485419
 C          5.3015560020       -0.4875722750       -0.8409567609
 C          5.8214249379       -1.8869758222       -0.5247363543
 C          5.0503787845       -3.0162918339       -1.2059205111
 H          5.4421428506       -3.9684572003       -0.8415179528
 H          5.2402407999       -2.9685145825       -2.2812269171
 C          3.5386569889       -2.9877386711       -0.9991683349
 H          3.1114064891       -3.8383427716       -1.5374891043
 H          3.1245803900       -2.0818095266       -1.4469896030
 C          3.0821650560       -3.0791505771        0.4552369803
 H          3.5434054433       -3.9480563815        0.9287205445
 H          2.0019566080       -3.2365713810        0.4479561025
 C          3.3637217154       -1.8410068126        1.3244458695
 H          4.3693340612       -1.8722619158        1.7388775675
 H          2.6638676307       -1.8517984572        2.1651508854
 H          5.8570577759       -2.0423423710        0.5495022919
 H          6.8530371052       -1.9257632695       -0.8849715660
 H          6.0271678808        0.2441308983       -0.4684021202
 H          5.2651402062       -0.3558629443       -1.9271987778
 O          3.6701947033        1.1502725911       -0.9546835703
 C          2.5466850129        1.9070269623       -0.6615212618
 O          2.4586964132        2.9430800260       -1.3491374086
 O          1.1258766806       -0.2719188721        1.8410443598
 C          0.4583644240        2.2200616421        0.7694680764
 C         -0.7253511693        1.9826592750       -0.1368877449
 C         -0.6684955160        2.2719674708       -1.4959857800
 C         -1.7638507081        2.0425298033       -2.3093881665
 C         -2.9383570908        1.5295566529       -1.7862197320
 C         -3.0051734491        1.2390324719       -0.4307655989
 C         -1.9025980397        1.4640115051        0.3835136614
 H         -1.9566009230        1.2191572417        1.4358057427
 N         -4.2008327950        0.7044495956        0.1000793516
 S         -4.5731872033       -0.8615319763       -0.3678289067
 O         -4.6937474662       -0.9020946828       -1.8017404091
 O         -5.7465898375       -1.2290206773        0.3900535734
 C         -3.1715591437       -1.8229378173        0.1703152102
 C         -2.0171771819       -1.8003840154       -0.5868867756
 C         -0.8990094529       -2.4714765545       -0.1195120608
 C         -0.9539496216       -3.1477989544        1.0888182964
 C         -2.1208791123       -3.1615190158        1.8367136137
 C         -3.2405682169       -2.4870280440        1.3787453646
 H         -4.1679097548       -2.4691132863        1.9287440933
 H         -2.1563753190       -3.6884201146        2.7767092832
 H         -0.0795476601       -3.6626417831        1.4548683657
 H          0.0133112962       -2.4512519942       -0.6950349723
 H         -2.0089990966       -1.2657367495       -1.5233059612
 H         -4.2446941087        0.7588669006        1.1087428464
 H         -3.7946998497        1.3312724476       -2.4098261308
 H         -1.7037330175        2.2688396481       -3.3633898822
 H          0.2452695667        2.6712487830       -1.9090349127
 H          0.2047249894        1.8128449819        1.7577304911
 C          0.7155991023        3.7074542056        0.9179836151
 C         -0.1634653516        4.5104056682        1.8271983705
 C          1.2586412808        4.2331436826        2.2110949974
 H          1.9724601350        5.0423348679        2.1777220961
 H          1.4440201091        3.5212278184        3.0023483576
 H         -0.4308369366        5.5128982725        1.5306746842
 H         -0.9428685282        3.9884916058        2.3615760161
 H          1.0610405040        4.1773670267        0.0067462695
