  62
        -98.93905302
 C         -2.4712854763       -0.9989875941        0.3692522572
 C         -2.7620951371        0.1771826286        1.1110513748
 C         -4.1035290033        0.7435798578        0.9405726847
 C         -4.9869881592        0.1273286672        0.1349272343
 C         -6.4055239118        0.5578135816       -0.1223374278
 C         -6.5447374599        1.6363323920       -1.2053564691
 C         -6.0739919546        3.0326106768       -0.7966741363
 H         -6.4275797140        3.7265075579       -1.5617925216
 H         -6.5491327054        3.3145341224        0.1433951669
 C         -4.5507797049        3.1748880370       -0.6686429527
 H         -4.2264670437        4.0896052663       -1.1699092599
 H         -4.0614886462        2.3412904552       -1.1780245477
 C         -4.0381738488        3.2421697468        0.7701377993
 H         -2.9469783431        3.3039745675        0.7428340467
 H         -4.4147709578        4.1472112548        1.2520751592
 C         -4.4213190604        2.0336450286        1.6343117270
 H         -3.8332120917        2.0693985301        2.5547154175
 H         -5.4793084199        2.0758205329        1.8926887596
 H         -7.6027222253        1.6962712720       -1.4705864344
 H         -5.9967853583        1.3125285597       -2.0931271082
 H         -6.9448377425       -0.3327965104       -0.4517372282
 H         -6.8537399818        0.9125489364        0.8061591348
 O         -4.6811591514       -1.0085975987       -0.5416856340
 C         -3.4216766846       -1.5877499013       -0.4657730634
 O         -3.3072111176       -2.6043468601       -1.1786068137
 H          1.2155992967       -0.1709301304        0.7281613240
 C          1.0120128871       -0.4828250650       -0.2861496986
 C         -0.1444737921       -1.1910894386       -0.5775823561
 C         -0.3898885813       -1.5603190366       -1.8962909280
 C          0.5099530539       -1.2295032082       -2.8927429082
 C          1.6772841530       -0.5488323795       -2.5942066831
 C          1.9279983951       -0.1696838937       -1.2808862082
 N          3.0936747760        0.5364474089       -0.9450800304
 S          3.8164815517        0.2117984125        0.5469033224
 O          3.7881348092       -1.2088833460        0.8108759815
 O          3.2182436415        1.0593636256        1.5477646460
 C          5.4865242410        0.7468306062        0.2236182841
 C          5.7843916617        2.0935670064        0.3140099392
 C          7.0743606519        2.5141051959        0.0317695523
 C          8.0389994276        1.5871074619       -0.3346719917
 C          7.7255681502        0.2388129337       -0.4189388725
 C          6.4370399417       -0.1886378727       -0.1394292588
 H          6.1492419553       -1.2267641096       -0.1834426919
 H          8.4784567610       -0.4796966378       -0.7003051481
 H          9.0423175409        1.9173410258       -0.5526528335
 H          7.3225825803        3.5610181324        0.0994301436
 H          5.0046003303        2.7752404193        0.6116500745
 H          3.7696410738        0.5636654429       -1.6961520089
 H          2.3858042391       -0.3071973505       -3.3719878781
 H          0.3072133495       -1.5194284424       -3.9128267201
 H         -1.2913256043       -2.1059071153       -2.1290360789
 C         -1.0796948861       -1.5803414538        0.5430213962
 H         -0.6914056290       -1.1206495685        1.4630117249
 C         -1.0616147919       -3.0874574699        0.7206768218
 C          0.1738871540       -3.7293137334        1.2747686413
 C         -1.0749897817       -3.6673912755        2.1012119808
 H         -1.6270953799       -4.5795267204        2.2712531218
 H         -1.1019175834       -2.9782952832        2.9330399016
 H          0.9990998539       -3.0833779133        1.5394589251
 H          0.4788784130       -4.6849214147        0.8764820596
 H         -1.6029734356       -3.6181944890       -0.0515013092
 O         -1.9370870586        0.7234852247        1.8927417811
