  62
        -98.94088222
 C         -2.5832981575       -0.2290735824        0.6002450762
 C         -2.4503985757        0.3938671386       -0.6662295954
 C         -2.2562946717        1.8492566150       -0.6467171936
 C         -2.1707516623        2.5010713163        0.5256179480
 C         -1.9457010697        3.9774842447        0.7052756162
 C         -0.4695615883        4.3876760442        0.6075077549
 C          0.1164491954        4.3908755978       -0.8053224954
 H         -0.5451558515        4.9446284477       -1.4727385287
 H          1.0611186082        4.9360623939       -0.7546126590
 C          0.3890964543        2.9958010467       -1.3851606573
 H          1.3686381064        2.9944308202       -1.8700772204
 H          0.4386744421        2.2625705701       -0.5760514508
 C         -0.6237632695        2.5280149026       -2.4308165756
 H         -0.3743496209        1.5012280870       -2.7107978848
 H         -0.5421563020        3.1529898950       -3.3237328268
 C         -2.0834333109        2.5470580664       -1.9622947434
 H         -2.6834665840        2.0105741650       -2.7019043339
 H         -2.4444217120        3.5733204675       -1.8957809158
 H          0.1202981425        3.7193572096        1.2402443862
 H         -0.3847628343        5.3975153916        1.0163632753
 H         -2.5309832211        4.5328814139       -0.0284225885
 H         -2.3093200780        4.2287467686        1.7040506709
 O         -2.2928673174        1.8676841016        1.7233085744
 C         -2.4644314340        0.4949268546        1.7879417308
 O         -2.5023271282        0.0407388734        2.9516687996
 O         -2.4893438860       -0.2188188929       -1.7640381788
 C         -2.6547196996       -1.7421542873        0.7333062900
 C         -1.5579843436       -2.3433507165       -0.1139804732
 C         -1.7369885183       -3.3742054663       -1.0246465035
 C         -0.6633990529       -3.8381838529       -1.7673436681
 C          0.5945539979       -3.2829186163       -1.6290117480
 C          0.7814574965       -2.2418470440       -0.7235827878
 C         -0.2852747314       -1.8063113100        0.0404576180
 H         -0.1335348761       -1.0111128984        0.7565007334
 N          2.0281075191       -1.6033921439       -0.6120164434
 S          2.4071369706       -0.6760827595        0.7384737026
 O          2.3293735701       -1.4825760863        1.9387088183
 O          1.6245307832        0.5336794098        0.7270872005
 C          4.1072907683       -0.2906365233        0.3686768164
 C          4.3706252389        0.7594360560       -0.4903001234
 C          5.6873753110        1.0507169357       -0.8088356127
 C          6.7131748694        0.2905437309       -0.2665811126
 C          6.4338101575       -0.7583219584        0.5964739593
 C          5.1186159948       -1.0553221357        0.9184318294
 H          4.8536334877       -1.8540675915        1.5923991893
 H          7.2335666302       -1.3445465550        1.0194133358
 H          7.7372096099        0.5195122932       -0.5158293959
 H          5.9082095053        1.8679485727       -1.4762885010
 H          3.5392563494        1.3255378909       -0.8777851643
 H          2.8054187468       -2.1718988140       -0.9168401114
 H          1.4222528373       -3.6349480727       -2.2252302467
 H         -0.8131373752       -4.6401555225       -2.4743911381
 H         -2.7162102674       -3.7999622243       -1.1702776051
 H         -2.4008212025       -1.9413881004        1.7891492655
 C         -4.0264678850       -2.3538789894        0.4974291780
 C         -5.2726148029       -1.5359737357        0.6577151328
 C         -4.8629895398       -2.0193962077       -0.6993263025
 H         -5.4412507943       -2.8105559677       -1.1540363123
 H         -4.4602973680       -1.3078853975       -1.4017578766
 H         -6.1271964994       -1.9919795515        1.1350078931
 H         -5.1526565878       -0.4862913962        0.8854116126
 H         -4.0785540920       -3.3771399652        0.8573505613
