  62
        -98.94179307
 C         -0.8014921222       -1.8301161972        0.5293645955
 C         -1.7462644048       -1.5360802987       -0.4840704901
 C         -2.8345243483       -0.6270178096       -0.1003050610
 C         -2.9008853029       -0.1576570790        1.1580249212
 C         -3.9308305049        0.7938513815        1.7036054054
 C         -3.8781179571        2.2173374806        1.1130347267
 C         -4.8574173855        2.4517012065       -0.0441220087
 H         -5.6768674789        1.7359977969        0.0374809346
 H         -5.2964186919        3.4457700569        0.0633952935
 C         -4.2549394988        2.3791810827       -1.4505798851
 H         -3.7196415801        3.3091838857       -1.6565858870
 H         -5.0788352232        2.3056887208       -2.1645922137
 C         -3.2748455066        1.2320336299       -1.7009842675
 H         -3.0848366264        1.1750222426       -2.7752966377
 H         -2.3138739255        1.4659308544       -1.2343253983
 C         -3.7460570736       -0.1445573708       -1.1899486558
 H         -4.7765959010       -0.0952040189       -0.8412515822
 H         -3.6866279041       -0.8784975333       -1.9964583634
 H         -2.8571146096        2.4415258260        0.7995517812
 H         -4.1282940826        2.9092663935        1.9191959198
 H         -4.9258494638        0.3700259242        1.5515222244
 H         -3.7475929740        0.8442623278        2.7788557898
 O         -2.0118239176       -0.5214752704        2.1218041096
 C         -0.9182979403       -1.3197731791        1.8202003901
 O         -0.1351065792       -1.5000102633        2.7760045285
 H          0.4835502629        0.0371094498       -0.2615371233
 C          1.1447853235       -0.4796145209       -0.9376286507
 C          1.2429891143       -1.8617681318       -0.8748302960
 C          2.0831351529       -2.5026644763       -1.7779567512
 C          2.7825562278       -1.7704467067       -2.7220423413
 C          2.6688360210       -0.3929744309       -2.7873100556
 C          1.8326710061        0.2572973621       -1.8870392028
 N          1.6552655750        1.6458491702       -1.9262249663
 S          1.2291595521        2.5113432429       -0.5666708385
 O         -0.1390388942        2.2499678265       -0.1948240943
 O          1.5326877820        3.8822945386       -0.9187180489
 C          2.3531118140        1.9598573334        0.7030888446
 C          1.8916285951        1.2586757338        1.7970471725
 C          2.8021148874        0.8039982234        2.7380357259
 C          4.1531809932        1.0639705901        2.5728116797
 C          4.6020961178        1.7835434611        1.4749839970
 C          3.6965571380        2.2329005399        0.5287209993
 H          4.0064159551        2.8016594333       -0.3327290626
 H          5.6531831677        1.9897062152        1.3530271814
 H          4.8582790503        0.7050185342        3.3058016929
 H          2.4399329880        0.2384795338        3.5820805930
 H          0.8354016276        1.0648748027        1.9041377877
 H          2.2691542928        2.1548040555       -2.5429844954
 H          3.2063083444        0.1720063703       -3.5330127751
 H          3.4264825548       -2.2813495298       -3.4216110575
 H          2.1810464928       -3.5757279380       -1.7481415416
 C          0.4568571770       -2.6024701274        0.1848051006
 H          1.0634798219       -2.6247391245        1.1030869833
 C          0.1280111177       -4.0267652594       -0.2160485986
 C          1.0522136082       -5.1514919217        0.1395011463
 C         -0.2574365317       -5.0044385124        0.8521422779
 H         -1.0455172357       -5.7122958814        0.6439708818
 H         -0.2492833381       -4.6485244080        1.8724295127
 H          1.9513793840       -4.9097549597        0.6860320116
 H          1.1630711611       -5.9669087155       -0.5594055179
 H         -0.4062630820       -4.0782222550       -1.1574765128
 O         -1.6760500744       -1.9928752238       -1.6547790138
