  62
        -98.94625944
 C         -1.7933817847       -1.1023701377       -0.2937040118
 C         -3.1450176021       -1.3072371045        0.0740449419
 C         -4.0888740763       -0.2723064826       -0.3622159956
 C         -3.6464928731        0.7729155501       -1.0851077591
 C         -4.4902778083        1.8955514195       -1.6253296769
 C         -4.7497694621        3.0227400526       -0.6163054164
 C         -5.7285744489        2.6777544070        0.5067591599
 H         -5.9836109488        3.6134661824        1.0082638746
 H         -6.6476055190        2.2786429173        0.0765167307
 C         -5.1760226475        1.6946068475        1.5482190893
 H         -4.0875406275        1.6508272219        1.4658948491
 H         -5.4064780800        2.0593616933        2.5517494630
 C         -5.7376850763        0.2766932359        1.4422240608
 H         -6.8093034090        0.2901043015        1.6529646841
 H         -5.2536114581       -0.3418823222        2.2023655682
 C         -5.5168338119       -0.3904339073        0.0780708108
 H         -6.1826635328        0.0456895726       -0.6662542886
 H         -5.7482156338       -1.4540546123        0.1747444597
 H         -5.1537444252        3.8713973630       -1.1730223249
 H         -3.7949774802        3.3319565696       -0.1850625793
 H         -3.9451060327        2.3123430007       -2.4749298375
 H         -5.4410620079        1.4999868176       -1.9836038859
 O         -2.3410107881        0.9235029927       -1.4336644371
 C         -1.3810862069        0.0055951346       -1.0324235480
 O         -0.2231521489        0.2860216845       -1.3945887156
 O         -3.5410365187       -2.3035333006        0.7360478191
 C         -0.7528374425       -2.1221213077        0.1325446752
 C          0.3013637790       -1.4560490413        0.9809703592
 C         -0.1010368733       -0.7597756835        2.1192742499
 C          0.8231040978       -0.1291705671        2.9282558809
 C          2.1711069188       -0.1713666820        2.6145230800
 C          2.5840299414       -0.8662673235        1.4855425996
 C          1.6530095378       -1.5125530361        0.6817653512
 H          2.0060445034       -2.0376537628       -0.1892976864
 N          3.9498811115       -0.9487795899        1.1511740861
 S          4.4630870680       -0.3912646876       -0.3433044255
 O          3.8200659444       -1.1353069072       -1.3934783349
 O          5.9066154971       -0.4794900042       -0.2888501292
 C          3.9773126818        1.3250886341       -0.3680842469
 C          2.6685688407        1.6604290748       -0.6509232320
 C          2.2994021546        2.9961153335       -0.5917893305
 C          3.2317111034        3.9641597773       -0.2533508447
 C          4.5424367244        3.6083230666        0.0280500733
 C          4.9190547884        2.2766458890       -0.0242295109
 H          5.9267167349        1.9534760852        0.1821532053
 H          5.2677784602        4.3622818510        0.2885124672
 H          2.9343970428        5.0002487529       -0.2104210851
 H          1.2772674482        3.2610566432       -0.8122454521
 H          1.9512371022        0.8996070766       -0.9164832548
 H          4.5627279485       -0.5807326342        1.8659629859
 H          2.8966002011        0.3253266854        3.2409610590
 H          0.4938267860        0.4049268610        3.8066963463
 H         -1.1550981809       -0.7225813458        2.3592618623
 H         -1.2937818799       -2.8442866183        0.7622605952
 C         -0.1969847322       -2.8521341791       -1.0713119334
 C          0.3511973702       -4.2385389381       -0.9202827976
 C         -0.9528171594       -4.0206678130       -1.6257541315
 H         -0.9894338617       -4.1496467177       -2.6971485984
 H         -1.8631640842       -4.3076480535       -1.1197486502
 H          1.2147009011       -4.5156572179       -1.5063163717
 H          0.3273330927       -4.6803474809        0.0644887980
 H          0.2866946053       -2.1897332589       -1.7813700458
