  62
        -98.93277899
 C         -2.3773555405       -1.2535415867       -0.0448428813
 C         -2.3424011662        0.1574498589        0.0526522044
 C         -3.6282455850        0.8117995842        0.3379662062
 C         -4.7339166641        0.0649085723        0.5089348972
 C         -6.1126426193        0.5621869401        0.8555106603
 C         -6.8057311707        1.4417111416       -0.2030251265
 C         -6.6148884220        2.9493507212        0.0040074493
 H         -7.5562098731        3.4561428265       -0.2177354928
 H         -6.3995284764        3.1349348143        1.0569195654
 C         -5.5380313549        3.6109289343       -0.8613622451
 H         -5.9291209851        3.7536184049       -1.8713053601
 H         -5.3345649545        4.5998824867       -0.4450572306
 C         -4.2196435121        2.8467910455       -0.9860125518
 H         -3.4840817587        3.5061400073       -1.4515790255
 H         -4.3472686037        2.0008658887       -1.6658616397
 C         -3.6569001921        2.3124531292        0.3455756977
 H         -2.6232820541        2.6419010884        0.4725310313
 H         -4.2413863358        2.6818802308        1.1869683906
 H         -7.8730867436        1.2230005227       -0.1452050062
 H         -6.4690937212        1.1475716250       -1.1966760128
 H         -6.0605032727        1.1069125897        1.8008624768
 H         -6.7114450538       -0.3358318111        1.0199922873
 O         -4.7176552683       -1.2940231593        0.4255422901
 C         -3.5517242591       -1.9830790836        0.1383773522
 O         -3.6854737923       -3.2223126794        0.0844058434
 O         -1.2926512586        0.8404225212       -0.0831799345
 C         -1.1068564235       -2.0231640525       -0.3585490110
 C         -0.0475599470       -1.7003168789        0.6668778551
 C         -0.3564462946       -1.8600204570        2.0157246632
 C          0.5739762570       -1.5647125484        2.9921705795
 C          1.8289998631       -1.0965884237        2.6439020905
 C          2.1520974219       -0.9445409063        1.3012897622
 C          1.2198050444       -1.2596983931        0.3213768671
 H          1.4923955126       -1.1274002208       -0.7112244570
 N          3.4408634126       -0.5136619641        0.9275911789
 S          3.6194356955        0.6614779796       -0.2737323716
 O          2.9720986185        1.8924054861        0.1244534870
 O          3.2340740017        0.1078003898       -1.5456962133
 C          5.3914136708        0.8654124179       -0.2262801814
 C          5.9391470296        1.9596706403        0.4153163843
 C          7.3184917282        2.0908798745        0.4590345311
 C          8.1221753738        1.1291129155       -0.1339359994
 C          7.5577794769        0.0357582230       -0.7744589530
 C          6.1797199968       -0.1003256913       -0.8228138898
 H          5.6964128018       -0.9270648344       -1.3164656342
 H          8.1859746202       -0.7088240392       -1.2361888937
 H          9.1951183306        1.2335988540       -0.0992123973
 H          7.7597033625        2.9412801745        0.9535510402
 H          5.2747248993        2.6865250706        0.8545069394
 H          3.9865135652       -0.2365707133        1.7341959958
 H          2.5524893275       -0.8520969313        3.4073381788
 H          0.3185530799       -1.6892774305        4.0339354216
 H         -1.3438085670       -2.2113291200        2.2854608721
 H         -1.3643429351       -3.0883643949       -0.2626716698
 C         -0.6735962500       -1.7544664190       -1.7842748434
 C          0.1216475288       -2.7787183976       -2.5345385677
 C         -1.3106181904       -2.5285994031       -2.8973224665
 H         -1.5285334930       -2.0161760980       -3.8224101799
 H         -2.0462873600       -3.2714949971       -2.6245431265
 H          0.8926027747       -2.4354373636       -3.2079442071
 H          0.3606388761       -3.6977187228       -2.0210084819
 H         -0.4545581490       -0.7074204642       -1.9650734590
