  62
        -98.93718352
 C          2.4342647424        1.0154488553       -0.1436084708
 C          3.5846779020        0.8654728834        0.6630337898
 C          4.6299995239       -0.0537364066        0.1729164283
 C          4.4332670757       -0.6899046789       -0.9971418789
 C          5.3263138144       -1.6991350999       -1.6682804640
 C          5.2526414692       -3.0858025840       -1.0080523396
 C          5.2733976224       -3.0740597225        0.5182892713
 H          4.4427327203       -2.4671397619        0.8832668203
 H          5.1006366630       -4.0978818122        0.8604767455
 C          6.5755140012       -2.5852155573        1.1481783019
 H          7.3966173110       -3.2235631439        0.8143086514
 H          6.4788277323       -2.7079903152        2.2300126062
 C          6.9487186943       -1.1282260431        0.8675373015
 H          7.3557942654       -1.0137201477       -0.1334367447
 H          7.7507879852       -0.8586007306        1.5609693665
 C          5.8220345960       -0.1255689150        1.0968820013
 H          5.4139150968       -0.2696021773        2.1038449046
 H          6.2506897125        0.8840990653        1.1029832012
 H          4.3198699736       -3.5596394117       -1.3233229969
 H          6.0811963324       -3.6900238636       -1.3812731363
 H          4.9793353445       -1.7871789309       -2.7001384309
 H          6.3488895987       -1.3345082463       -1.6930832596
 O          3.3045970977       -0.5137187954       -1.7422362464
 C          2.2828227725        0.3293664500       -1.3476686981
 O          1.3229323865        0.3828129612       -2.1398045493
 O          3.7363976116        1.4685779290        1.7603697806
 C          1.3252416295        1.9410803428        0.3241722534
 C          0.0646007565        1.1392451665        0.5321283286
 C          0.0745497210        0.1213762214        1.4832904591
 C         -1.0462975990       -0.6555125496        1.6994890424
 C         -2.2028198638       -0.4394064389        0.9694022621
 C         -2.2270345269        0.5764192348        0.0250244495
 C         -1.0998498577        1.3635809279       -0.1830052501
 H         -1.1347753241        2.1458407718       -0.9249401158
 N         -3.3879730284        0.7922004682       -0.7321890304
 S         -4.8828753004        0.8036846605        0.0222465984
 O         -5.7381572981        1.5764407085       -0.8517942878
 O         -4.7839964604        1.2599623072        1.3892786139
 C         -5.4002299741       -0.8995609690       -0.0181107351
 C         -5.4072427690       -1.5496841577       -1.2365370007
 C         -5.8162462412       -2.8726401763       -1.2865387498
 C         -6.2118334956       -3.5187708632       -0.1246730528
 C         -6.2028787910       -2.8510537266        1.0902491125
 C         -5.7940575614       -1.5276671527        1.1470995515
 H         -5.7656005142       -0.9706693178        2.0701689959
 H         -6.5110761292       -3.3550339792        1.9922188404
 H         -6.5289300358       -4.5488405059       -0.1667756178
 H         -5.8238345435       -3.3952565372       -2.2295594678
 H         -5.0939855119       -1.0131645543       -2.1166765674
 H         -3.3075844162        1.5335922749       -1.4120578955
 H         -3.0793345686       -1.0456259668        1.1289026347
 H         -1.0213697137       -1.4409628726        2.4396605446
 H          0.9800313718       -0.0516677399        2.0490225746
 H          1.6542282783        2.3184810924        1.3032332468
 C          1.1678104068        3.1131048339       -0.6203945201
 C          0.5187762787        4.3764973076       -0.1415750716
 C          1.9948113149        4.3422256890       -0.3980713979
 H          2.3815378569        4.8658489831       -1.2594662329
 H          2.6629796623        4.3450739987        0.4505617755
 H         -0.1078898087        4.9283950313       -0.8261084650
 H          0.1814020372        4.4061897273        0.8835882629
 H          0.9988231448        2.8069393976       -1.6467124288
