  62
        -98.94290945
 C          2.3331945172        0.9116047845        0.3957413432
 C          2.5222435868       -0.1639995043       -0.5054268384
 C          3.5054157441       -1.1802087673       -0.0980062997
 C          4.1292274000       -1.0666104334        1.0878329292
 C          5.1810228952       -2.0050756547        1.6020695643
 C          6.5868220048       -1.5367837339        1.2007994048
 C          6.7224185262       -1.1906065236       -0.2820127265
 H          6.1072508525       -0.3149345708       -0.5015867775
 H          7.7619464777       -0.9041406760       -0.4555332508
 C          6.3399401038       -2.3297621024       -1.2372196048
 H          6.3443702991       -3.2798650368       -0.7017886213
 H          7.0959559427       -2.3968415840       -2.0224181397
 C          4.9902374898       -2.1475998505       -1.9340547257
 H          4.9467324978       -1.1575182730       -2.3950416356
 H          4.9206184188       -2.8854743397       -2.7379188518
 C          3.7514463310       -2.3206341066       -1.0460850785
 H          2.8765638455       -2.3611140415       -1.7016280297
 H          3.8166097568       -3.2658249159       -0.5034251328
 H          7.2992852178       -2.3220824367        1.4597303076
 H          6.8348041033       -0.6468483065        1.7837786707
 H          5.1136074436       -2.0322515723        2.6908971283
 H          4.9937297599       -3.0032039336        1.2110977220
 O          3.8998668923       -0.0390751103        1.9431661127
 C          3.0181322127        0.9740581601        1.6150479206
 O          2.9285913449        1.8693504148        2.4783387213
 H         -0.1379710486        0.1709986229       -1.0436417410
 C         -0.6841833323        0.7074948264       -0.2818063121
 C         -0.0448650703        1.7124634927        0.4297059578
 C         -0.7596003669        2.3894065977        1.4109434926
 C         -2.0789723041        2.0635170454        1.6716610514
 C         -2.7100748261        1.0551013484        0.9654541141
 C         -2.0044335762        0.3717983661       -0.0162218143
 N         -2.6210844590       -0.6754302233       -0.7208655840
 S         -4.1485972748       -0.4293500424       -1.3662794418
 O         -4.2636619147       -1.3847450494       -2.4463490518
 O         -4.3643730647        0.9571800108       -1.7103567815
 C         -5.2493122216       -0.9089307040       -0.0509774632
 C         -5.0807669195       -2.1564858176        0.5170654016
 C         -5.9358809988       -2.5495163019        1.5341218643
 C         -6.9415634587       -1.6949975652        1.9611008836
 C         -7.1001890980       -0.4472543728        1.3779749901
 C         -6.2472790426       -0.0475661627        0.3608079134
 H         -6.3286592956        0.9153997867       -0.1177463118
 H         -7.8827923710        0.2152705004        1.7111458949
 H         -7.6053790260       -2.0037327173        2.7531614165
 H         -5.8152337610       -3.5189265099        1.9903314766
 H         -4.2887718096       -2.7910422219        0.1554122131
 H         -2.0107034174       -1.1218049309       -1.3903511477
 H         -3.7368718226        0.7962656162        1.1661427538
 H         -2.6219259623        2.5980212731        2.4361581008
 H         -0.2697568009        3.1680631094        1.9774124316
 C          1.3903305649        2.0759532113        0.1295931393
 H          1.6884415398        2.8613599624        0.8369088186
 C          1.5185495108        2.6300507334       -1.2769641802
 C          1.0916885412        4.0405416487       -1.5438897608
 C          2.5468426073        3.6814550310       -1.5600365830
 H          3.0638256648        3.6548294041       -2.5075839726
 H          3.1626789514        4.0123407745       -0.7361161443
 H          0.7218724620        4.6178108661       -0.7100136862
 H          0.6045974344        4.2620905480       -2.4812088368
 H          1.3358560032        1.8944328738       -2.0491875655
 O          1.9134922913       -0.2974216789       -1.6023220836
