  62
        -98.93924870
 C         -2.4741859639       -0.8570269716        0.7955561251
 C         -3.2521077980       -0.5127377619       -0.3371354239
 C         -3.9811761368        0.7593020389       -0.2444422213
 C         -3.8767963663        1.5154513209        0.8630543257
 C         -4.5811027068        2.8210189598        1.1152436652
 C         -3.8710555859        4.0420800976        0.5146911757
 C         -3.9524459859        4.1587016741       -1.0078724272
 H         -4.9935755133        4.0799743390       -1.3221903962
 H         -3.6076543582        5.1605338895       -1.2713765867
 C         -3.1041773050        3.1294052290       -1.7681886756
 H         -2.5490251151        3.6304925392       -2.5643494110
 H         -2.3656714334        2.6921111987       -1.0919393408
 C         -3.9068291205        2.0018239124       -2.4172650316
 H         -4.5523783375        2.4128556001       -3.1966517258
 H         -3.2047247734        1.3102930933       -2.8904396626
 C         -4.7736440150        1.1996928471       -1.4380024163
 H         -5.6357545580        1.7895054051       -1.1273725526
 H         -5.1280206268        0.3022709951       -1.9508905880
 H         -2.8231467084        4.0234967417        0.8226957343
 H         -4.3302568255        4.9322733419        0.9506967989
 H         -5.6002298801        2.7662532171        0.7316559675
 H         -4.6236587577        2.9465283660        2.1992986912
 O         -3.1034507082        1.1565566695        1.9228384033
 C         -2.3678457883       -0.0160791099        1.9039416101
 O         -1.6662062762       -0.1967308898        2.9213848910
 H          0.4088664043       -0.5189128927        0.9933169378
 C          0.4641996937       -1.1014767340        0.0813691175
 C         -0.5408582196       -2.0252157566       -0.1830907794
 C         -0.4660379177       -2.7732294831       -1.3492371166
 C          0.5852970632       -2.5860189494       -2.2312461902
 C          1.5787907429       -1.6612932372       -1.9695781448
 C          1.5176124759       -0.9128073211       -0.8000856153
 N          2.5214113158        0.0384704741       -0.5249346986
 S          4.1180888706       -0.4903824913       -0.7112197549
 O          4.4570540425       -0.4276846198       -2.1106105013
 O          4.2894250025       -1.7791772118       -0.0780770531
 C          5.0127598981        0.7648122871        0.1818417704
 C          5.3254475707        1.9467854759       -0.4622159551
 C          6.0064931670        2.9300108086        0.2375858386
 C          6.3609518665        2.7164150979        1.5614582610
 C          6.0407091195        1.5245459277        2.1939854947
 C          5.3586116080        0.5373426389        1.5003263619
 H          5.0982998599       -0.4080723872        1.9491553571
 H          6.3196569782        1.3601321182        3.2223634820
 H          6.8928705764        3.4822853290        2.1034440840
 H          6.2598968769        3.8570557800       -0.2508447098
 H          5.0382507189        2.0639920134       -1.4940374587
 H          2.3946723489        0.4573569144        0.3870212895
 H          2.4050548800       -1.5153478493       -2.6464157324
 H          0.6312645058       -3.1703538482       -3.1380295008
 H         -1.2341299938       -3.4941462547       -1.5742067615
 C         -1.6631516291       -2.1426139605        0.8207001975
 H         -1.2105349544       -2.1925339165        1.8212255007
 C         -2.5421767423       -3.3587122304        0.6262361665
 C         -2.0367904332       -4.7065001151        1.0420525156
 C         -3.1217048483       -4.0369005887        1.8295490917
 H         -4.1247821173       -4.4309301710        1.7653155705
 H         -2.8743395873       -3.6302602849        2.7995630218
 H         -2.2945263493       -5.5635220019        0.4387391532
 H         -1.0496335129       -4.7560322375        1.4767589103
 H         -3.1652056891       -3.2965718720       -0.2572147886
 O         -3.3466969317       -1.2242468290       -1.3697880924
