  62
        -98.93950039
 C         -1.3824289451       -1.7391582891       -0.2635020931
 C         -1.3065182653       -0.4239742232       -0.7779984168
 C         -2.5755063577        0.3302175184       -0.8289452894
 C         -3.6934512005       -0.2334591751       -0.3403876687
 C         -5.0614219881        0.3812411540       -0.2245744155
 C         -5.2361922729        1.0690139588        1.1407591053
 C         -4.7879784106        2.5290166081        1.1930092631
 H         -5.4840676357        3.1377508163        0.6120064999
 H         -4.8606317464        2.8524817266        2.2339557779
 C         -3.3665647174        2.7976254077        0.6923222647
 H         -3.0465459502        3.7574580205        1.1016338141
 H         -2.6877992551        2.0360014179        1.0801593502
 C         -3.2679345584        2.8476896537       -0.8389178912
 H         -4.2711289125        2.8945314940       -1.2617171107
 H         -2.7630109620        3.7663039507       -1.1438722818
 C         -2.4910383780        1.6874345332       -1.4728113349
 H         -2.7914254287        1.5884405551       -2.5217736066
 H         -1.4222932690        1.9222598550       -1.4731497958
 H         -4.6829286127        0.4870074164        1.8822713592
 H         -6.2916407869        1.0305651645        1.4181746100
 H         -5.2463294882        1.0727643684       -1.0409326413
 H         -5.7765306211       -0.4411298723       -0.2937322775
 O         -3.7082941041       -1.4859703087        0.1964308925
 C         -2.5733353580       -2.2704939458        0.2342183817
 O         -2.7449947602       -3.4027833699        0.7299083714
 H          2.1841487145       -1.1916042040       -0.5919535910
 C          1.9460520732       -1.3590820152        0.4441775484
 C          0.8135980351       -2.0706212170        0.8061845370
 C          0.5381951791       -2.2513008733        2.1599940155
 C          1.3840154495       -1.7434353917        3.1266793257
 C          2.5145464244       -1.0320099752        2.7629066011
 C          2.7904180650       -0.8361652226        1.4148448442
 N          3.9316326437       -0.1231039519        1.0199331413
 S          3.9188425990        0.8728082103       -0.3169289654
 O          3.9194912896        0.0927347587       -1.5287190267
 O          5.0816120473        1.7185500970       -0.1274387405
 C          2.4632430309        1.9011943878       -0.2226486074
 C          1.9436528741        2.2589620040        1.0043859477
 C          0.8719238871        3.1358881235        1.0481273439
 C          0.3530187019        3.6536776444       -0.1267883133
 C          0.8885259739        3.2879323065       -1.3512849865
 C          1.9504264792        2.4004764555       -1.4013542822
 H          2.3838922479        2.0769524576       -2.3339974052
 H          0.4797496958        3.6847340166       -2.2673518994
 H         -0.4783585115        4.3397323575       -0.0871996771
 H          0.4455053420        3.4121449128        1.9994009790
 H          2.3609157646        1.8521045979        1.9110606496
 H          4.4752205399        0.2743899923        1.7718746661
 H          3.1798332241       -0.6354461154        3.5150432238
 H          1.1624972635       -1.8989882594        4.1716709446
 H         -0.3521165584       -2.7979653224        2.4396933773
 C         -0.1526851001       -2.6311247712       -0.2075935028
 H         -0.5060738218       -3.6022541151        0.1662141456
 C          0.4522980204       -2.8331650496       -1.5803246144
 C          1.3901998499       -3.9792021229       -1.8061519400
 C          0.0173221418       -4.0039784500       -2.4068954685
 H         -0.0821863594       -3.8728679394       -3.4740289860
 H         -0.7155600434       -4.6729548939       -1.9792129339
 H          2.2378113266       -3.8293486291       -2.4576002227
 H          1.5890017960       -4.6325120890       -0.9697982951
 H          0.6529531035       -1.9065065330       -2.1039684072
 O         -0.2388517263        0.1064479223       -1.1817240430
