  62
        -98.93723210
 C         -1.3511413196       -0.9434851418        0.4758283372
 C         -1.4458085459        0.4375094898        0.7779471649
 C         -2.3700387150        1.2247684324       -0.0462946005
 C         -3.0075311996        0.6259320930       -1.0679712077
 C         -4.0083837260        1.2935258649       -1.9653779131
 C         -5.4350622670        1.1429649708       -1.4185790074
 C         -5.5730384279        1.5151977675        0.0575919982
 H         -6.6257053858        1.4006677391        0.3247262547
 H         -5.0080219243        0.7992368304        0.6586687831
 C         -5.1104357813        2.9386128196        0.3983155547
 H         -5.8529471897        3.4016557789        1.0515581201
 H         -5.0590603091        3.5389335168       -0.5107127014
 C         -3.7682408003        3.0106363658        1.1285589682
 H         -3.6420828081        4.0279923276        1.5082616045
 H         -3.7842649578        2.3383178568        1.9899390891
 C         -2.5299860841        2.6821353210        0.2844827950
 H         -2.5325866595        3.2833799589       -0.6275250455
 H         -1.6463624730        2.9557847803        0.8688173946
 H         -6.1010530778        1.7667713040       -2.0175477929
 H         -5.7430565630        0.1019486125       -1.5400942140
 H         -3.9525301183        0.8241730933       -2.9491712819
 H         -3.7528750628        2.3470285803       -2.0638870585
 O         -2.8421181964       -0.6845101948       -1.3730666389
 C         -2.0122291556       -1.5052089199       -0.6174627790
 O         -1.9629139255       -2.6780986463       -1.0270079902
 O         -0.7877328494        0.9886460021        1.7020031255
 C         -0.3943350504       -1.7894956548        1.3105829304
 C          0.6698329189       -2.2996954118        0.3712202237
 C          0.7607364810       -3.5649306924       -0.1942547627
 C          1.7381270710       -3.8426584449       -1.1362506975
 C          2.6214843945       -2.8698605482       -1.5629371155
 C          2.5374497112       -1.5958211210       -1.0115736761
 C          1.5937343161       -1.3383902420       -0.0336237615
 H          1.5327777699       -0.3469768039        0.3877961818
 N          3.4036894390       -0.5709471709       -1.4177844821
 S          2.8795936739        1.0209901871       -1.4644465644
 O          1.4608044585        1.1197201257       -1.7170397476
 O          3.7448825799        1.6467680975       -2.4439526847
 C          3.3088384833        1.6460339088        0.1463578088
 C          2.3366088262        2.0893688960        1.0191639572
 C          2.7213363065        2.5595098963        2.2658716082
 C          4.0623194293        2.5816949557        2.6145537496
 C          5.0282831617        2.1373923809        1.7234450343
 C          4.6504633345        1.6650074780        0.4778539133
 H          5.3675738083        1.3175202166       -0.2469580734
 H          6.0708170018        2.1560159129        1.9972793423
 H          4.3545750476        2.9468926492        3.5865112192
 H          1.9630059417        2.8953410925        2.9550550693
 H          1.2966064723        2.0463652262        0.7318182571
 H          3.9940396956       -0.7985649206       -2.2041566449
 H          3.3588044505       -3.0856618002       -2.3212113231
 H          1.7917211986       -4.8323839695       -1.5646160683
 H          0.0566530171       -4.3363654183        0.0586402286
 H          0.1007220081       -1.0559739782        1.9674839555
 C         -1.1414889131       -2.7213020382        2.2515300784
 C         -1.8465078977       -3.9857052933        1.8676905389
 C         -0.6144917441       -4.0438501836        2.7207840445
 H         -0.7332492063       -4.2947897325        3.7644199834
 H          0.3020768594       -4.4073838432        2.2851474768
 H         -2.8000712082       -4.1822445766        2.3376847783
 H         -1.8123883741       -4.2981112064        0.8373680031
 H         -1.6548537321       -2.1264185446        3.0040725510
