  62
        -98.94215271
 C         -2.2325925334       -0.8741822968        0.1242419045
 C         -1.6399538033       -0.0659480916       -0.8734438890
 C         -2.0532629479        1.3481118025       -0.9068606381
 C         -2.8818549865        1.8120991086        0.0441469466
 C         -3.4951780004        3.1829823285        0.2007619229
 C         -2.6581329522        4.4058901838       -0.1826966259
 C         -1.1767516737        4.3220039329        0.2125109120
 H         -0.9063333672        5.2150154451        0.7795759340
 H         -1.0039354401        3.4606421444        0.8617028079
 C         -0.2415602490        4.2210624275       -0.9935140399
 H         -0.5755523258        4.9166197048       -1.7671610497
 H          0.7615291292        4.5242274967       -0.6832239418
 C         -0.1256628188        2.8168437648       -1.5807917125
 H          0.3421826009        2.1642400723       -0.8398077768
 H          0.5415180616        2.8619046514       -2.4451622802
 C         -1.4547069728        2.1725060091       -2.0115361914
 H         -2.1543539062        2.9204844498       -2.3778228139
 H         -1.2418277729        1.4711048318       -2.8229960088
 H         -2.7344163009        4.5810279766       -1.2546711160
 H         -3.1187294306        5.2644815586        0.3098480602
 H         -4.4279624180        3.1960217495       -0.3724790961
 H         -3.7706308294        3.2496326232        1.2568067764
 O         -3.3517171995        1.0148157924        1.0488647079
 C         -3.0464915075       -0.3318677646        1.1142917001
 O         -3.5495929859       -0.9297342061        2.0902740484
 H         -0.3367814778       -1.1031116332        1.9075656810
 C          0.2406025401       -1.7561471767        1.2635616415
 C         -0.4164855622       -2.5273801340        0.3123203862
 C          0.3414416588       -3.3631066763       -0.4973303750
 C          1.7216008133       -3.3892389408       -0.3862217522
 C          2.3741221254       -2.5681790619        0.5157504943
 C          1.6209359821       -1.7510066038        1.3472387193
 N          2.2989711891       -0.8309285291        2.2039157032
 S          2.2803849916        0.7071828435        1.4964952948
 O          3.0385823728        1.5601121580        2.3882016885
 O          0.9268921262        1.1480778501        1.2328808115
 C          3.1807524870        0.4334578038       -0.0100236049
 C          4.5567976778        0.5521812709        0.0302864169
 C          5.2866040291        0.2910896524       -1.1176113426
 C          4.6300433391       -0.0887382627       -2.2789447238
 C          3.2491042986       -0.2063372440       -2.3004460741
 C          2.5103242334        0.0539354140       -1.1561654267
 H          1.4346934871       -0.0393928170       -1.1517499048
 H          2.7327987822       -0.5052685653       -3.1984170483
 H          5.1971615593       -0.2953540480       -3.1729233940
 H          6.3608472445        0.3812017921       -1.1028494110
 H          5.0184284886        0.8517435019        0.9568380246
 H          1.8602561125       -0.7529391396        3.1128642225
 H          3.4495209715       -2.5446185734        0.5830193176
 H          2.2964821984       -4.0373598713       -1.0291483050
 H         -0.1491868800       -3.9806804042       -1.2316810563
 C         -1.9103432775       -2.3582676448        0.1929617766
 H         -2.3804287384       -2.7300378618        1.1152561520
 C         -2.5113950384       -3.0811669948       -0.9939301425
 C         -2.8840866089       -4.5285874262       -0.8859727245
 C         -3.9541340963       -3.4811353802       -0.9430961120
 H         -4.5456477506       -3.3929729357       -1.8418652625
 H         -4.4996820564       -3.2523338614       -0.0388117392
 H         -2.7452866094       -5.1630159373       -1.7481425262
 H         -2.7088275078       -5.0209852389        0.0585406650
 H         -2.1266964793       -2.7178204164       -1.9397639163
 O         -0.8223639398       -0.5100320384       -1.7207975487
