  62
        -98.93180569
 C          1.9114610011        0.1524147363        0.8948468024
 C          2.7572020054        0.8016317580       -0.0346770254
 C          4.1411193344        0.2890911528       -0.1364728530
 C          4.5077850496       -0.7746576015        0.5986001957
 C          5.8441972806       -1.4705730212        0.6603133977
 C          6.5549250838       -1.7239954726       -0.6781018479
 C          7.7956152803       -0.8528637659       -0.8832176081
 H          8.3271795672       -0.7762395598        0.0676763773
 H          8.4618304425       -1.3546645068       -1.5885991225
 C          7.5227545949        0.5497981317       -1.4235624248
 H          7.2257542669        0.4813191478       -2.4723626847
 H          8.4625157183        1.1060203636       -1.3881125711
 C          6.4535824472        1.3435142479       -0.6701930340
 H          6.6294387041        2.4043231528       -0.8611724429
 H          6.5535353951        1.1934254336        0.4042416759
 C          5.0198396399        1.0193718713       -1.1155001343
 H          4.4824024462        1.9486438411       -1.3289349292
 H          5.0383577585        0.4620402826       -2.0564569722
 H          6.8715004281       -2.7682581520       -0.6934859054
 H          5.8552206247       -1.5882912066       -1.5012789144
 H          6.4996939753       -0.9034137456        1.3261267986
 H          5.6436069895       -2.4215920621        1.1592040133
 O          3.6489843368       -1.3859646224        1.4655437803
 C          2.3537969560       -0.9423747225        1.6404735096
 O          1.6973607017       -1.5916289937        2.4805923629
 O          2.3999502063        1.7678548840       -0.7554685469
 C          0.4714780530        0.5676388198        1.1469986217
 C         -0.4614645434       -0.1265557354        0.1889868525
 C         -0.2469602563       -0.0839566545       -1.1850806237
 C         -1.1190996380       -0.7169776534       -2.0518345234
 C         -2.2250622777       -1.3952521946       -1.5696133724
 C         -2.4516687457       -1.4373168057       -0.2008655738
 C         -1.5711251259       -0.8067504705        0.6685920015
 H         -1.7435827286       -0.8585229542        1.7352701886
 N         -3.6008154194       -2.0935539040        0.2865236541
 S         -5.0632393393       -1.4838317052       -0.2699345007
 O         -6.0504811815       -1.9023727734        0.6987551700
 O         -5.2749639391       -1.9208671588       -1.6259292668
 C         -4.8329858653        0.2835614315       -0.2182483648
 C         -4.9438840291        0.9205728907        1.0020023613
 C         -4.6667678609        2.2757279182        1.0786540690
 C         -4.2711621266        2.9643590954       -0.0579855952
 C         -4.1677325303        2.3110284864       -1.2758442800
 C         -4.4505502959        0.9570759010       -1.3607658964
 H         -4.3851117872        0.4145854840       -2.2892860932
 H         -3.8606373967        2.8497629680       -2.1577570003
 H         -4.0389090610        4.0151554319        0.0073295138
 H         -4.7502410293        2.7884371492        2.0234969541
 H         -5.2548495485        0.3501925068        1.8629283794
 H         -3.6199629522       -2.1689893370        1.2938075223
 H         -2.9200685205       -1.8873790849       -2.2308017136
 H         -0.9376127399       -0.6801235106       -3.1153368548
 H          0.6062722327        0.4576055627       -1.5636159372
 H          0.2437345779        0.1938883114        2.1577619926
 C          0.2750110492        2.0787017683        1.1673774039
 C         -0.5533749982        2.8212473511        0.1661184668
 C         -1.0558282314        2.6456611411        1.5651537151
 H         -1.0782581008        3.5005181640        2.2234620602
 H         -1.8654481182        1.9472025373        1.7167247288
 H         -0.2025771858        3.7932083244       -0.1444036606
 H         -1.0341146214        2.2598752811       -0.6193120739
 H          1.1535888743        2.5946208906        1.5395666551
