  62
        -98.94475723
 C         -1.8449852601       -0.0411797199        0.0612950296
 C         -2.8156439001       -0.9071373793        0.6190978304
 C         -4.1566536001       -0.3379053391        0.7897647598
 C         -4.3870615400        0.9415426806        0.4425596186
 C         -5.6952692700        1.6723542708        0.5798219978
 C         -6.6670283700        1.4374575797       -0.5847984020
 C         -7.3163407000        0.0533782897       -0.6218283006
 H         -7.7621409001       -0.1635183293        0.3494086496
 H         -8.1287478600        0.1004500891       -1.3497656307
 C         -6.3635623501       -1.0828742407       -1.0189036895
 H         -6.8479427001       -1.7216547814       -1.7609403889
 H         -5.4727629001       -0.6628964712       -1.4918348099
 C         -5.9313797702       -1.9816305796        0.1396777314
 H         -5.2304289402       -2.7255004800       -0.2473386478
 H         -6.8001614202       -2.5117675392        0.5361081219
 C         -5.2445678801       -1.2381945385        1.2927222507
 H         -5.9779547601       -0.6686955479        1.8630555101
 H         -4.7847556102       -1.9784149279        1.9520688814
 H         -6.1370826299        1.6169378088       -1.5231537521
 H         -7.4596627099        2.1848602198       -0.5031729727
 H         -5.4535555499        2.7367529308        0.6169240068
 H         -6.1755073900        1.3920861818        1.5177675181
 O         -3.4201872699        1.7484894800       -0.0709099522
 C         -2.1337149000        1.2765956997       -0.2928112917
 O         -1.3591141899        2.1146586692       -0.7921264925
 O         -2.5700499502       -2.0937414090        0.9648299816
 C         -0.4414151201       -0.5693302403       -0.1729499399
 C          0.5698955200        0.2823926204        0.5519294993
 C          0.3370791500        0.6116802617        1.8857897490
 C          1.2217641500        1.4091525124        2.5833105182
 C          2.3701162600        1.8827094017        1.9722301278
 C          2.6207279200        1.5483644204        0.6482490181
 C          1.7278577300        0.7459901097       -0.0517943711
 H          1.9446104900        0.5163292687       -1.0813250509
 N          3.7781703801        2.0107750297        0.0019830476
 S          4.6514653000        0.9576739387       -0.9571706013
 O          5.9860791901        1.5161945286       -0.9879491618
 O          4.0111875800        0.7869364575       -2.2361841911
 C          4.6485791999       -0.5800010204       -0.0523054598
 C          4.0298201499       -1.6911671309       -0.5852363787
 C          4.0026792298       -2.8629405702        0.1544818624
 C          4.5899562098       -2.9013832190        1.4091767625
 C          5.2141602498       -1.7773122985        1.9287203214
 C          5.2444890999       -0.6038967692        1.1936541602
 H          5.7304357299        0.2844466611        1.5630093394
 H          5.6734714498       -1.8123249276        2.9034030414
 H          4.5623499697       -3.8134331684        1.9842937634
 H          3.5213033597       -3.7394030006       -0.2496158267
 H          3.5829066099       -1.6176600619       -1.5629931688
 H          4.3852914301        2.5732567502        0.5797755871
 H          3.0593253401        2.5142051722        2.5118737171
 H          1.0192786900        1.6641718834        3.6125703179
 H         -0.5601474001        0.2430490522        2.3639657193
 H         -0.4308101201       -1.5742351898        0.2755835111
 C         -0.1785901901       -0.6973392917       -1.6586802498
 C          0.7083892199       -1.7848035423       -2.1829645087
 C         -0.7723869901       -1.8558466324       -2.4010012986
 H         -1.1602590901       -1.6880937834       -3.3946469588
 H         -1.3395287202       -2.5731211618       -1.8257316679
 H          1.3438285199       -1.5658093832       -3.0286018789
 H          1.1409419698       -2.4623283116       -1.4627270980
 H         -0.1657105000        0.2622637978       -2.1644617307
