  62
        -98.94452517
 C         -1.8962320868       -0.8699843737        0.4202364976
 C         -2.1748904545        0.3046914543       -0.3197592280
 C         -3.4657711801        0.9476517219       -0.0385179901
 C         -4.2816904442        0.4446793201        0.9044245208
 C         -5.6123739908        1.0083159662        1.3224660878
 C         -6.7824657934        0.5743448288        0.4288445609
 C         -6.8171323218        1.2193584788       -0.9572922920
 H         -7.7952915601        0.9979716876       -1.3889282253
 H         -6.7450309332        2.3026304511       -0.8545443750
 C         -5.7293179865        0.7172011522       -1.9169135812
 H         -5.3164971964       -0.2213729634       -1.5401332206
 H         -6.1742102729        0.5027254764       -2.8912016553
 C         -4.5845367441        1.7032875961       -2.1491025649
 H         -4.9659933851        2.5968732079       -2.6482973478
 H         -3.8556135130        1.2318613043       -2.8130858415
 C         -3.8529899285        2.1331132976       -0.8708467594
 H         -2.9360880587        2.6536663042       -1.1582524736
 H         -4.4748012153        2.8167207607       -0.2932410799
 H         -6.7574786619       -0.5128264840        0.3244723164
 H         -7.7054106359        0.8365575950        0.9511829019
 H         -5.7989977640        0.6439975284        2.3350615379
 H         -5.5580349757        2.0970704508        1.3503217485
 O         -3.9641529284       -0.6644505478        1.6221366235
 C         -2.7888133897       -1.3540727822        1.3839356666
 O         -2.6487445471       -2.3752688643        2.0860655706
 H          0.5243737328        0.7042827971       -0.2092170451
 C          1.0260206581        0.1614410936        0.5781447333
 C          0.5456818708       -1.0844488327        0.9556785995
 C          1.1956833071       -1.7648060815        1.9782250021
 C          2.2983666697       -1.2105005549        2.6055750371
 C          2.7751547866        0.0310400723        2.2252259407
 C          2.1262975392        0.7208778782        1.2095350508
 N          2.6159607156        1.9798361652        0.8008735418
 S          4.2013870568        1.9735553011        0.2537921586
 O          5.0942092340        1.9638038744        1.3855349538
 O          4.3164607258        3.1090852339       -0.6336464360
 C          4.3454242829        0.4418504501       -0.6490645378
 C          3.6589693508        0.3251417745       -1.8413774168
 C          3.6927312774       -0.8825494287       -2.5183791365
 C          4.4019556806       -1.9501060613       -1.9896267693
 C          5.0861680572       -1.8165612277       -0.7917827514
 C          5.0572874319       -0.6102658677       -0.1105827666
 H          5.5733947680       -0.4635034511        0.8238750259
 H          5.6368666613       -2.6487687104       -0.3840439828
 H          4.4212426771       -2.8918269264       -2.5152571040
 H          3.1616941881       -0.9864144440       -3.4511925690
 H          3.1185021589        1.1760742616       -2.2248309190
 H          2.0174303830        2.4247303004        0.1188174182
 H          3.6372014733        0.4765801352        2.6950823702
 H          2.7924086796       -1.7510463823        3.3983603778
 H          0.8239971814       -2.7308241042        2.2875081973
 C         -0.6331596743       -1.6987633550        0.2397310755
 H         -0.8461124080       -2.6649315544        0.7157396309
 C         -0.2900683843       -1.9470952783       -1.2176872295
 C          0.6032154446       -3.0977321690       -1.5654995284
 C         -0.8544374971       -3.1486337772       -1.9109380296
 H         -1.1461579741       -3.0559750134       -2.9463837575
 H         -1.4939039425       -3.8031688557       -1.3362014066
 H          1.3174627713       -2.9702999376       -2.3636200986
 H          0.9540468511       -3.7198043960       -0.7563339166
 H         -0.1927880172       -1.0388492677       -1.7970258183
 O         -1.4040716385        0.8173074134       -1.1760404590
