  62
        -98.94501048
 C         -2.5496741508       -0.1400217949        0.4381438992
 C         -2.3992448690        0.5388240880       -0.7947765463
 C         -2.1979296628        1.9913068613       -0.7056886434
 C         -2.1678339458        2.5806665274        0.5031059137
 C         -1.9657240448        4.0496779393        0.7371609609
 C         -0.4871561767        4.4005772937        0.9466889969
 C          0.4512460868        3.8304355869       -0.1172762607
 H          1.4518150337        4.2100276060        0.1036411987
 H          0.5003282260        2.7437410123       -0.0137794488
 C          0.0786107804        4.1917336134       -1.5617060369
 H          0.9910341854        4.4656775468       -2.0954678936
 H         -0.5767992409        5.0638602840       -1.5698243863
 C         -0.5737188961        3.0558125331       -2.3524658311
 H         -0.5472849325        3.3192707102       -3.4134219378
 H          0.0118549690        2.1415480229       -2.2228932678
 C         -2.0326064802        2.7451479884       -1.9946528226
 H         -2.6153388995        3.6687949547       -1.9817157977
 H         -2.4368738295        2.0927080639       -2.7742113341
 H         -0.1722637133        4.0117603136        1.9181726298
 H         -0.3956639757        5.4887419449        0.9693136890
 H         -2.3621237191        4.6008901395       -0.1136992195
 H         -2.5243461300        4.3306770989        1.6321556108
 O         -2.3098209191        1.8937745548        1.6670727317
 C         -2.4794816144        0.5189748771        1.6634623703
 O         -2.5672389074        0.0073832524        2.8006902265
 H         -0.1726361431       -0.9001019053        0.5087531273
 C         -0.3041083519       -1.7796525527       -0.1047511078
 C         -1.5753421767       -2.3163041513       -0.2605542304
 C         -1.7213622148       -3.4590744698       -1.0364019124
 C         -0.6193745885       -4.0339714809       -1.6465754758
 C          0.6408857882       -3.4848588040       -1.5034445370
 C          0.7966887536       -2.3370487760       -0.7319810274
 N          2.0537235208       -1.7210530147       -0.6174349523
 S          2.3514874207       -0.5917718909        0.5917060488
 O          2.1085549927       -1.1699270302        1.8966691362
 O          1.6428488448        0.6236181161        0.2825236923
 C          4.1015475014       -0.3494601276        0.3543467024
 C          4.9939602017       -1.1025626359        1.0939455566
 C          6.3530069335       -0.9308634288        0.8830982221
 C          6.7944282768       -0.0150142620       -0.0601137382
 C          5.8871374728        0.7354227833       -0.7931703143
 C          4.5268265700        0.5685290373       -0.5868828254
 H          3.7842136351        1.1341089602       -1.1254851695
 H          6.2336878095        1.4492990087       -1.5228309272
 H          7.8524022101        0.1173597201       -0.2223663672
 H          7.0604571005       -1.5099152068        1.4544167606
 H          4.6044601202       -1.7931781848        1.8246242969
 H          2.8317646643       -2.3467634744       -0.7691496505
 H          1.4957901000       -3.9285238916       -1.9898380750
 H         -0.7455790074       -4.9227571114       -2.2461164351
 H         -2.6975111827       -3.8975039703       -1.1653037150
 C         -2.7280524842       -1.6464503911        0.4496675269
 H         -2.6962472769       -1.9492140017        1.5079228741
 C         -4.0801957261       -2.0191757379       -0.1250212427
 C         -4.8238246331       -3.2128616283        0.3921337956
 C         -5.2998283966       -1.8316675050        0.7247090422
 H         -6.2029860074       -1.4675215070        0.2587393523
 H         -5.1475444724       -1.4634599142        1.7293113495
 H         -4.3604578909       -3.7891449114        1.1788627506
 H         -5.4059774303       -3.7986717696       -0.3032072141
 H         -4.1610497542       -1.7783136089       -1.1787957060
 O         -2.4426331212       -0.0372507082       -1.9137650274
