  62
        -98.94061754
 C         -1.3406807680       -1.2147764283       -0.1733641726
 C         -2.4758371882       -1.2128731072        0.6730315191
 C         -3.2578056074        0.0330891557        0.7303474793
 C         -2.8585007414        1.0956813029        0.0066196077
 C         -3.4167806356        2.5009732937       -0.0773396403
 C         -4.8393312899        2.8069072453        0.3862246657
 C         -5.9422764187        2.1326822594       -0.4277395232
 H         -6.9009583165        2.3681165450        0.0399908459
 H         -5.9489302181        2.5623835334       -1.4326144283
 C         -5.8212056985        0.6176828962       -0.5737487195
 H         -4.9319359488        0.3747547171       -1.1589439691
 H         -6.6857340527        0.2672502564       -1.1442393707
 C         -5.7816729751       -0.1659421851        0.7373790960
 H         -5.8748716050       -1.2262137907        0.4873807110
 H         -6.6394093496        0.1071984947        1.3550065887
 C         -4.4993592425        0.0001184778        1.5735817999
 H         -4.5529579109        0.8788405296        2.2121407589
 H         -4.4062666837       -0.8730595802        2.2257362201
 H         -4.9527456952        2.5719280393        1.4404645147
 H         -4.9712977036        3.8879560654        0.2875296280
 H         -2.7296718349        3.1312769832        0.4980225555
 H         -3.3117113563        2.7983314180       -1.1251713425
 O         -1.7501085411        1.0499741501       -0.7859163201
 C         -0.9684814397       -0.0869458557       -0.9040569745
 O         -0.0043733779        0.0425046195       -1.6809243563
 O         -2.8199111275       -2.2104449512        1.3618005344
 C         -0.4878879671       -2.4724261387       -0.2250672984
 C          0.8142592624       -2.1482321638        0.4618663154
 C          0.8933631457       -2.2264510285        1.8494319850
 C          2.0388650602       -1.8329251880        2.5162681825
 C          3.1234209406       -1.3340273182        1.8150219752
 C          3.0476276091       -1.2412322921        0.4319403074
 C          1.9103415715       -1.6683512223       -0.2390349196
 H          1.8657224949       -1.5816354244       -1.3127308100
 N          4.1312821762       -0.6911822813       -0.2887182762
 S          4.4886083488        0.9135357452        0.0354283413
 O          5.4098201557        1.3188674761       -1.0020267851
 O          4.9745231861        1.0142026778        1.3889820817
 C          2.9539522126        1.8077549574       -0.1258646295
 C          2.0769763283        1.8418009083        0.9393905652
 C          0.8721000347        2.5086549007        0.7908148183
 C          0.5674879204        3.1281339397       -0.4105858026
 C          1.4571854812        3.0809153838       -1.4713173195
 C          2.6601307948        2.4099811582       -1.3319581562
 H          3.3797170639        2.3495072193       -2.1329021077
 H          1.2107713106        3.5544682144       -2.4080606441
 H         -0.3740905697        3.6413268618       -0.5260580791
 H          0.1713353596        2.5332209111        1.6111933323
 H          2.3472283266        1.3534612278        1.8617937216
 H          4.0237828136       -0.7990926546       -1.2882645080
 H          4.0131930671       -0.9919344850        2.3183126052
 H          2.0870567440       -1.9061842334        3.5923337024
 H          0.0358851669       -2.5855763720        2.4011594190
 H         -1.0232701906       -3.2152614466        0.3805910652
 C         -0.3282068605       -3.0112964593       -1.6305082177
 C          0.2028272951       -4.3993832725       -1.8245244927
 C         -1.2389929495       -4.1024017797       -2.1041748089
 H         -1.5730712780       -4.0846035200       -3.1308111642
 H         -1.9808005440       -4.4714023198       -1.4111462269
 H          0.8605740026       -4.5893593790       -2.6589264122
 H          0.4411117811       -4.9690083806       -0.9389752456
 H         -0.0488638800       -2.2558164541       -2.3543882356
