  62
        -98.94608602
 C         -1.1080895999       -1.5277384902       -0.2193095589
 C         -1.1917037802       -0.1194102703       -0.3543998696
 C         -2.2836379402        0.5287757199        0.3853102803
 C         -3.0861175000       -0.1964813799        1.1828249307
 C         -4.2162173400        0.3303146403        2.0253572106
 C         -5.5360840501        0.5073910697        1.2617918407
 C         -5.5705623704        1.6826636593        0.2839663501
 H         -6.6123903305        1.8219316689       -0.0115180898
 H         -5.2541291505        2.5901628996        0.7991501997
 C         -4.7215248606        1.4813384988       -0.9789568699
 H         -4.4859183604        0.4209119988       -1.0932456894
 H         -5.2998641107        1.7779428383       -1.8567528899
 C         -3.4193638607        2.2817457290       -1.0017565204
 H         -3.6469765009        3.3498162490       -1.0184015709
 H         -2.8814005208        2.0349048787       -1.9201178104
 C         -2.4853284105        2.0000666598        0.1823522296
 H         -1.5081813306        2.4364350698       -0.0367986407
 H         -2.8765393305        2.4576485501        1.0912524894
 H         -5.7556072800       -0.4193753506        0.7266627312
 H         -6.3234205400        0.6565066100        2.0044036307
 H         -4.3741021397       -0.3993743493        2.8227490310
 H         -3.9237610501        1.2784670906        2.4781002501
 O         -2.9416647497       -1.5404892498        1.3304785813
 C         -1.9716562497       -2.2316070799        0.6252916915
 O         -1.9788738895       -3.4636359599        0.8291298821
 H          1.4440184098       -0.2617528798       -0.2195162798
 C          1.8725481101       -1.1875874995        0.1263047906
 C          1.2276994902       -2.3845775898       -0.1487231088
 C          1.7911314805       -3.5690140194        0.3107091617
 C          2.9683980706       -3.5500512289        1.0377360515
 C          3.5942556604       -2.3522992786        1.3335663009
 C          3.0362823301       -1.1629622390        0.8788221904
 N          3.6394704800        0.0745996513        1.1479670097
 S          2.6733542898        1.4077611613        1.4611027392
 O          3.5398481197        2.3123692318        2.1930701787
 O          1.4544283899        1.0348653614        2.1433549596
 C          2.3274971094        2.1375824304       -0.1245270111
 C          3.0856153794        1.8126584500       -1.2301267110
 C          2.8033872391        2.4326318094       -2.4369445213
 C          1.7803777589        3.3637923792       -2.5162231116
 C          1.0341759790        3.6847912496       -1.3938363117
 C          1.3103559793        3.0676551202       -0.1851652014
 H          0.7479488793        3.2768969406        0.7117733186
 H          0.2333646789        4.4045511694       -1.4574593319
 H          1.5579215187        3.8381140787       -3.4592801918
 H          3.3787263690        2.1803980791       -3.3134934412
 H          3.8655858495        1.0744669802       -1.1415207408
 H          4.4424988900        0.0424117317        1.7589556396
 H          4.5026730705       -2.3351887282        1.9164624508
 H          3.3962353808       -4.4761939486        1.3907619119
 H          1.2904884906       -4.5052771696        0.1116666922
 C         -0.0661673099       -2.3823031004       -0.9266390486
 H         -0.4641524997       -3.4063738404       -0.9181624881
 C          0.1773217299       -1.9715556810       -2.3661672189
 C          0.7543739899       -2.9726700514       -3.3193400484
 C         -0.6779494302       -2.5510172717       -3.4505774985
 H         -0.9587951004       -1.9170869321       -4.2779967187
 H         -1.4455371700       -3.2540692617       -3.1602223980
 H          0.9571298401       -3.9640769711       -2.9432699180
 H          1.4607458498       -2.6297162116       -4.0592829887
 H          0.4823618397       -0.9389461410       -2.4701977194
 O         -0.4153732004        0.5851833795       -1.0516517300
