  62
        -98.94152312
 C         -2.3822231237       -1.2343731951        0.1579899039
 C         -3.3188037176       -0.5539271975        0.9768671967
 C         -4.0862889411        0.5216409815        0.3356067937
 C         -3.8434419701        0.8215160022       -0.9531027700
 C         -4.5062311805        1.9314068456       -1.7154290293
 C         -3.7008380125        3.2340131816       -1.6097665332
 C         -3.3082702879        3.6033386121       -0.1790394401
 H         -2.6031461664        2.8589936120        0.1996531656
 H         -2.7723453394        4.5541167922       -0.2241943906
 C         -4.4904242782        3.7257203658        0.7930286304
 H         -4.3587316777        4.6299991008        1.3908162580
 H         -5.4189958759        3.8398641709        0.2328137891
 C         -4.6300817823        2.5595803353        1.7733358844
 H         -5.3493130930        2.8481318082        2.5443368799
 H         -3.6725391999        2.3825273453        2.2699726936
 C         -5.1130095963        1.2342654368        1.1706206467
 H         -5.3467390962        0.5595574203        1.9993716315
 H         -6.0258938352        1.4029423617        0.5959857414
 H         -4.2907124396        4.0416926341       -2.0468181441
 H         -2.7856366946        3.1248987342       -2.1970243422
 H         -5.5123034641        2.0812654978       -1.3284173192
 H         -4.5688727410        1.6384524074       -2.7647651976
 O         -2.9156126864        0.1716088300       -1.6992439274
 C         -2.1501450950       -0.8602418581       -1.1671059985
 O         -1.3267068836       -1.3378037889       -1.9682898699
 O         -3.4988711866       -0.8289747185        2.1936794594
 C         -1.5592707820       -2.3381244690        0.7997954868
 C         -0.0978072654       -2.1312830392        0.4897321502
 C          0.6934214094       -3.0588318498       -0.1733464470
 C          2.0214439332       -2.7777984241       -0.4444504276
 C          2.5887664114       -1.5773344993       -0.0595595655
 C          1.8052783644       -0.6400405924        0.6013217312
 C          0.4782963308       -0.9271620484        0.8773714591
 H         -0.1345753300       -0.1925361281        1.3871904989
 N          2.3729790697        0.5824433387        1.0056350109
 S          3.2156556291        1.4786747089       -0.1394345772
 O          3.1563179580        2.8431616487        0.3402772850
 O          2.7203316401        1.2460931280       -1.4761369165
 C          4.8878879293        0.8857031261        0.0105721952
 C          5.4844756073        0.9249996535        1.2557409635
 C          6.7870764192        0.4712696784        1.3876083585
 C          7.4681227564       -0.0081702950        0.2784230145
 C          6.8565425969       -0.0369169334       -0.9655250319
 C          5.5529990305        0.4143738102       -1.1041892141
 H          5.0335267648        0.4046199969       -2.0493629919
 H          7.3870966911       -0.4096079516       -1.8269483914
 H          8.4815830739       -0.3617445745        0.3839482195
 H          7.2660432267        0.4920947325        2.3532079688
 H          4.9215140199        1.3080154959        2.0903284460
 H          1.7288706078        1.1779540354        1.5064885901
 H          3.6202024959       -1.3534201958       -0.2774246773
 H          2.6231859168       -3.5043047438       -0.9689270424
 H          0.2637870718       -3.9897926208       -0.5041751081
 H         -1.6985375947       -2.1826349074        1.8832451025
 C         -2.0507609180       -3.7466817988        0.5041809377
 C         -3.4932942354       -4.0110589848        0.1952012180
 C         -2.4543647243       -4.1902045712       -0.8688155344
 H         -2.2052619136       -5.1958963030       -1.1747705666
 H         -2.3984676744       -3.4655184570       -1.6655519038
 H         -3.9561514766       -4.8898238828        0.6184964668
 H         -4.1546481335       -3.1594709435        0.1256319562
 H         -1.5523247064       -4.4844642909        1.1254973279
