  62
        -98.93496525
 C          0.6161816886        1.6244456400       -0.7329630610
 C          1.6922208487        1.9348956107        0.1347567386
 C          2.8437328489        1.0155531110        0.1419897489
 C          2.8097891690       -0.0673122294       -0.6547077606
 C          3.8577367492       -1.1360459493       -0.8269623702
 C          4.4419852696       -1.7161928985        0.4705150899
 C          5.9067007696       -1.3369883480        0.6929411694
 H          6.4306642894       -1.3933269384       -0.2634434406
 H          6.3631173899       -2.0734982176        1.3580529497
 C          6.1307973694        0.0421110023        1.3113712987
 H          7.2042720593        0.2444728725        1.2856448684
 H          5.8310774296        0.0192338228        2.3614212388
 C          5.3991609790        1.2009739918        0.6292329383
 H          5.4324067288        1.0936786913       -0.4539829517
 H          5.9370300388        2.1199015321        0.8730262377
 C          3.9475740290        1.3785899217        1.0982009585
 H          3.7668936189        2.4317989418        1.3358937380
 H          3.7901643094        0.8326477522        2.0335302788
 H          4.3799517199       -2.8037340085        0.4134421105
 H          3.8381090497       -1.3999774282        1.3197549899
 H          4.6618942490       -0.7390006194       -1.4504303006
 H          3.3709895193       -1.9214278197       -1.4072626997
 O          1.7568104189       -0.3282842801       -1.4770888902
 C          0.6328129587        0.4844446996       -1.5370131004
 O         -0.2317140614        0.0753643290       -2.3316847200
 O          1.6928939186        2.9561973111        0.8752556181
 C         -0.5737468416        2.5659974398       -0.6861872412
 C         -1.5065217013        2.1648184502        0.4282894192
 C         -2.0086318013        3.1051650005        1.3201208788
 C         -2.8570393110        2.7190659008        2.3426970592
 C         -3.2269312107        1.3941707108        2.4874108199
 C         -2.7257307606        0.4451285905        1.6031403003
 C         -1.8657814909        0.8342678302        0.5871574399
 H         -1.4804884109        0.0943618399       -0.0972152998
 N         -3.0490599503       -0.9111179395        1.7385082211
 S         -3.2032138404       -1.8722788303        0.3765823916
 O         -3.7999722308       -1.1431688209       -0.7173854787
 O         -3.9527633800       -3.0223963302        0.8419117423
 C         -1.5532268903       -2.4090336701       -0.0147374085
 C         -0.6585733401       -2.6339670994        1.0129404214
 C          0.5956695300       -3.1361807092        0.7080715714
 C          0.9263764298       -3.4158352998       -0.6088736485
 C          0.0197787495       -3.1782713005       -1.6286614984
 C         -1.2338725605       -2.6682679407       -1.3317116484
 H         -1.9588906007       -2.4491449612       -2.0990324084
 H          0.2837609194       -3.3757965110       -2.6551661684
 H          1.8986793498       -3.8209393997       -0.8416800585
 H          1.3108150502       -3.3096536887        1.4963650414
 H         -0.9502225399       -2.4077729089        2.0254470114
 H         -3.7407209501       -1.1271133393        2.4413015813
 H         -3.8918989104        1.0915546411        3.2818329002
 H         -3.2383061610        3.4569851911        3.0320302689
 H         -1.7173016215        4.1399685805        1.2166846082
 H         -0.1528857318        3.5497566100       -0.4216887018
 C         -1.2906548319        2.7267829390       -2.0174936412
 C         -2.5733768218        2.0367828985       -2.3599526705
 C         -2.5670062221        3.5115876286       -2.0985345613
 H         -2.7086341724        4.1847023782       -2.9305869816
 H         -3.0016695420        3.8548383090       -1.1717972814
 H         -2.6923862719        1.6877929080       -3.3746595603
 H         -3.0217019815        1.3757305688       -1.6336820201
 H         -0.5885810021        2.8550512187       -2.8356618714
