  62
        -98.93284285
 C         -1.8179640772       -0.7479371277        0.3826111183
 C         -2.1994711030        0.5480628758       -0.0435727874
 C         -3.5992761659        0.7440876577       -0.4657250808
 C         -4.4332986723       -0.3114700085       -0.4341491783
 C         -5.8995192075       -0.3540714517       -0.7739776188
 C         -6.7810333571        0.2581332169        0.3265960675
 C         -6.2635770020        1.5708013653        0.9090088740
 H         -6.9120177817        1.8402351991        1.7469542667
 H         -5.2617258409        1.4131969795        1.3125414442
 C         -6.2406364559        2.7493834286       -0.0613432295
 H         -5.9389261928        3.6321571073        0.5081834757
 H         -7.2519874773        2.9254419532       -0.4347047952
 C         -5.2974293556        2.6123598881       -1.2584241932
 H         -5.2037840326        3.6028151852       -1.7133617395
 H         -5.7213679318        1.9629114164       -2.0195850830
 C         -3.8835197318        2.1593314217       -0.9079137880
 H         -3.2368046738        2.3305392960       -1.7769843683
 H         -3.4829085004        2.8077812280       -0.1205256077
 H         -7.7840386103        0.4062171611       -0.0772433975
 H         -6.8497974888       -0.4639003919        1.1440044844
 H         -6.0757359638        0.1337426998       -1.7281017946
 H         -6.1647121919       -1.4078038103       -0.8852226666
 O         -4.0237169815       -1.5439079891       -0.0230121866
 C         -2.7251543703       -1.8078246132        0.3862940997
 O         -2.5363983419       -2.9936432919        0.7118115848
 O         -1.3981304160        1.5218927951       -0.0602683281
 C         -0.3760490573       -0.9163031963        0.8221643275
 C          0.5171752331       -1.3443102625       -0.3136769884
 C          0.1485832140       -2.3511891297       -1.1994797351
 C          1.0066400180       -2.7380356889       -2.2130601330
 C          2.2528621111       -2.1510495235       -2.3462550394
 C          2.6316742099       -1.1456952293       -1.4648845624
 C          1.7535457425       -0.7360444261       -0.4714590499
 H          2.0418226097        0.0637592363        0.1924924587
 N          3.8857056141       -0.5285339327       -1.5632005369
 S          4.7265918244       -0.1474143259       -0.1639090217
 O          6.1127907063       -0.0982887186       -0.5754972385
 O          4.4090832264       -1.0627434066        0.9061925429
 C          4.1848335835        1.4983002391        0.2415851951
 C          3.6611221530        1.7614602520        1.4916178625
 C          3.2535895250        3.0522322857        1.7893949489
 C          3.3786095550        4.0518939237        0.8372879793
 C          3.9113214823        3.7721609192       -0.4121988905
 C          4.3198423290        2.4838171875       -0.7160739216
 H          4.7412283969        2.2280351022       -1.6738910120
 H          4.0062228447        4.5533189300       -1.1491692782
 H          3.0575573361        5.0546569000        1.0713421783
 H          2.8375453802        3.2706487310        2.7599369919
 H          3.5761288188        0.9540263967        2.2024487262
 H          4.4911754899       -0.9028436290       -2.2790892768
 H          2.9272804104       -2.4681777987       -3.1271945848
 H          0.7082048310       -3.5183190992       -2.8971916786
 H         -0.8095834674       -2.8340948328       -1.0792323980
 H         -0.0559680749        0.0954308183        1.1199795235
 C         -0.2143796855       -1.8133396098        2.0417718251
 C          0.3207972033       -3.2086818730        1.9788184435
 C          1.1491720490       -2.1200343923        2.5889070674
 H          1.2849173583       -2.1156397256        3.6602548603
 H          2.0131603422       -1.7791402197        2.0359154530
 H         -0.1314976377       -3.9485303118        2.6213812048
 H          0.6180005921       -3.5970198365        1.0174338270
 H         -0.9985614749       -1.6384631183        2.7722619716
