  62
        -98.93787398
 C          2.0315198063        0.9181078786       -0.3593216085
 C          2.8471689036        0.6153681553        0.7617254597
 C          3.4608170506       -0.7169661365        0.7913843951
 C          3.1868935904       -1.5819657124       -0.2015633613
 C          3.7746205831       -2.9575038319       -0.3274970375
 C          5.0679024138       -2.9351259744       -1.1544610008
 C          6.0633380449       -1.8612716136       -0.7149101634
 H          6.9469639895       -1.9581942026       -1.3494042745
 H          5.6329198925       -0.8765311971       -0.9110062146
 C          6.4802234344       -1.9471674659        0.7599829791
 H          6.2426950246       -2.9356290414        1.1544989212
 H          7.5631266635       -1.8228472514        0.8251000211
 C          5.8545459704       -0.8794234982        1.6593465804
 H          6.3772869688       -0.8945342391        2.6193047710
 H          6.0091487695        0.1081948841        1.2177618208
 C          4.3578532461       -1.0459559065        1.9516295504
 H          4.0919549154       -0.3394339398        2.7432906725
 H          4.1632238032       -2.0574993766        2.3138775207
 H          5.5369182811       -3.9185049670       -1.0881690858
 H          4.8060844383       -2.7524671535       -2.1992922792
 H          3.0440682802       -3.5977940698       -0.8250286967
 H          3.9728037954       -3.3531793942        0.6668352097
 O          2.3738956096       -1.2746273245       -1.2422794077
 C          1.7765201995       -0.0214096972       -1.3599292534
 O          1.0858111796        0.0987994379       -2.3876858732
 O          3.0590793950        1.4376800104        1.6941246374
 C          1.4069312945        2.3018515471       -0.3620202296
 C          0.1738260676        2.3285693318        0.5063776058
 C         -0.0590017056        3.3889296422        1.3749496310
 C         -1.2032816017        3.4235831878        2.1514208541
 C         -2.1381622611        2.4083632002        2.0688349487
 C         -1.9065436130        1.3340491228        1.2158655004
 C         -0.7535016324        1.2983561633        0.4450483336
 H         -0.5853715372        0.4600178748       -0.2156748986
 N         -2.8196164218        0.2706704896        1.1471443716
 S         -2.9891503761       -0.5627541527       -0.3118928615
 O         -1.9752911676       -1.5850934671       -0.3788653423
 O         -3.0559429773        0.3759670732       -1.4079906852
 C         -4.5860203575       -1.3152958281       -0.0557653398
 C         -5.7121324163       -0.7033094650       -0.5732064988
 C         -6.9531597340       -1.2755627676       -0.3414546862
 C         -7.0471134913       -2.4419515140        0.4027015043
 C         -5.9080244856       -3.0455288032        0.9147633523
 C         -4.6640796203       -2.4791501694        0.6856340376
 H         -3.7504906000       -2.9158538692        1.0543823669
 H         -5.9842203234       -3.9540064711        1.4901077947
 H         -8.0137318134       -2.8853216908        0.5821464063
 H         -7.8396062696       -0.8106256022       -0.7416939060
 H         -5.5883294012        0.1971470984       -1.1530834331
 H         -3.7126319782        0.4860737363        1.5689507006
 H         -3.0352045233        2.4363474477        2.6682441847
 H         -1.3726397246        4.2518988966        2.8223370852
 H          0.6717089679        4.1809434358        1.4473481702
 H          2.1536787455        2.9555851424        0.1192937620
 C          1.1438528933        2.8657284791       -1.7497790051
 C         -0.2032962407        2.8562326815       -2.4007013914
 C          0.3827585247        4.1477695948       -1.9195178339
 H          0.7315799387        4.8594077612       -2.6524167624
 H         -0.0507354109        4.5934094328       -1.0372226723
 H         -0.2403343243        2.6587400200       -3.4612994938
 H         -1.0321469351        2.4204902467       -1.8629450802
 H          1.9909806661        2.7111136187       -2.4108091334
