  62
        -98.94492220
 C         -2.1496713202       -0.8751472099       -0.0788024301
 C         -2.9714245700       -0.4971147908        1.0160113604
 C         -3.6951987999        0.7700903794        0.8796941016
 C         -3.5252119500        1.5167640304       -0.2261621977
 C         -4.1588537599        2.8536389607       -0.5001987464
 C         -5.5800350900        2.7678954713       -1.0736942162
 C         -6.6575327699        2.3352450505       -0.0785767664
 H         -6.5974360397        2.9595488397        0.8133658141
 H         -7.6236201900        2.5299927210       -0.5483497261
 C         -6.5918499500        0.8544802601        0.3207005622
 H         -5.9764633601        0.3104342307       -0.3995101084
 H         -7.5935309000        0.4211632203        0.2777011220
 C         -6.0482635798        0.6001148088        1.7265961119
 H         -6.0110161398       -0.4799091914        1.8891867109
 H         -6.7283166696        1.0290272282        2.4657385424
 C         -4.6428990097        1.1647784984        1.9720087822
 H         -4.6837292095        2.2499116984        2.0646709332
 H         -4.2628505195        0.7471409875        2.9074028917
 H         -5.5721591702        2.0825139721       -1.9243583068
 H         -5.8389939200        3.7604972117       -1.4493380953
 H         -3.5204307100        3.3546973713       -1.2313420360
 H         -4.1690184797        3.4470436798        0.4146581442
 O         -2.7128669302        1.1331881812       -1.2449685882
 C         -2.0160811503       -0.0664552189       -1.2074381994
 O         -1.3381429505       -0.2743094880       -2.2346056097
 O         -3.0923920799       -1.1907766618        2.0600258497
 C         -1.3769410103       -2.1784500301        0.0597053186
 C          0.0545046198       -1.8512053906        0.4097126386
 C          0.4893327700       -1.9228558518        1.7288773085
 C          1.7772558401       -1.5492744322        2.0688981386
 C          2.6531717400       -1.0844726814        1.1038561789
 C          2.2233660298       -0.9969485102       -0.2132985710
 C          0.9410777197       -1.3971041398       -0.5565520411
 H          0.6105506895       -1.3013765388       -1.5796778810
 N          3.0987762497       -0.4820251494       -1.1943863006
 S          3.5758169899        1.1152160504       -0.9486944792
 O          2.5826642200        1.8570993998       -0.2043685984
 O          3.9144998097        1.6250991615       -2.2598155588
 C          5.0674411700        0.9617167493        0.0129022304
 C          5.1446842603        1.5464209182        1.2617165209
 C          6.3163721004        1.4159770974        1.9911712706
 C          7.3838784302        0.7073244578        1.4614327298
 C          7.2910884599        0.1282372490        0.2043939592
 C          6.1232205898        0.2558422797       -0.5304665504
 H          6.0097901196       -0.1735272793       -1.5117806008
 H          8.1235616598       -0.4214610807       -0.2042660414
 H          8.2936157603        0.6063287072        2.0318832195
 H          6.3899209406        1.8659467465        2.9682001310
 H          4.2859603204        2.0821157079        1.6339544115
 H          2.7218034895       -0.5703020185       -2.1287435406
 H          3.6544132401       -0.7802002918        1.3621523090
 H          2.1005553403       -1.6133153532        3.0966444785
 H         -0.2019835199       -2.2534103925        2.4907094383
 H         -1.8260880102       -2.6863902909        0.9235266982
 C         -1.4978798806       -3.0847537190       -1.1476791023
 C         -1.1384110907       -4.5325650392       -1.0048015236
 C         -2.5717591007       -4.1292836289       -1.1722829930
 H         -3.0628491708       -4.3395309480       -2.1105943532
 H         -3.2246564405       -4.1953749096       -0.3142403930
 H         -0.6424252809       -5.0235600484       -1.8278400242
 H         -0.8183073505       -4.8720597901       -0.0314416440
 H         -1.2653553207       -2.5962010481       -2.0849060118
