  62
        -98.93946978
 C         -2.2819860467       -0.8752070345        0.6362846602
 C         -3.4303646047       -0.9125258148       -0.1926149528
 C         -4.4731227611        0.0816577199        0.1068204197
 C         -4.2888661337        0.9593603153        1.1084571592
 C         -5.2427566941        2.0579288159        1.4766730463
 C         -4.9165044108        3.3557675111        0.7245666144
 C         -4.7286986455        3.1677843952       -0.7809356380
 H         -4.5346436449        4.1536015616       -1.2092374213
 H         -3.8364738931        2.5615020052       -0.9550957393
 C         -5.9260534424        2.5258887270       -1.4956173700
 H         -6.8163593685        2.6058037924       -0.8709067820
 H         -6.1235657655        3.0814804982       -2.4147159761
 C         -5.7164509027        1.0641400057       -1.8945836595
 H         -4.7747456015        0.9648639334       -2.4401072032
 H         -6.5220696318        0.7790023758       -2.5763013928
 C         -5.7138993801        0.0527629395       -0.7415760391
 H         -6.6036284111        0.1947192553       -0.1250996386
 H         -5.7538984268       -0.9489079758       -1.1789580651
 H         -5.7206796907        4.0710485052        0.9066133027
 H         -3.9927260235        3.7704559534        1.1350762064
 H         -6.2585546051        1.7399933005        1.2497851593
 H         -5.1590311561        2.2393477322        2.5495404910
 O         -3.1726152875        0.9699598865        1.8820549758
 C         -2.1530805949        0.0594213454        1.6688385052
 O         -1.1967299534        0.1736227945        2.4638573314
 H          1.4618215595       -1.0656915123        0.7137028281
 C          1.1285753579       -1.0537869419       -0.3134065483
 C         -0.1786057018       -1.4042205695       -0.6204016530
 C         -0.5908780871       -1.3625932680       -1.9483182232
 C          0.2893277396       -0.9696429157       -2.9395383753
 C          1.5905959046       -0.6160763085       -2.6298691298
 C          2.0154564167       -0.6628107958       -1.3068463822
 N          3.3490531923       -0.3602506531       -0.9801971232
 S          3.7041450739        0.3846045702        0.4916246900
 O          3.6188836091       -0.5973390427        1.5429643583
 O          2.9069442604        1.5807089091        0.6516301486
 C          5.4139369487        0.8077305552        0.2121760033
 C          5.7573426764        2.1080917826       -0.1045486550
 C          7.0890040105        2.4104188720       -0.3439150628
 C          8.0483898822        1.4122823083       -0.2660205281
 C          7.6884315538        0.1113525611        0.0538880096
 C          6.3595104182       -0.1971914460        0.2960054729
 H          6.0335786525       -1.1904002048        0.5571044344
 H          8.4373527178       -0.6615417158        0.1163282402
 H          9.0836113216        1.6502133074       -0.4529188393
 H          7.3720659788        3.4213256206       -0.5893804212
 H          4.9779029291        2.8519545519       -0.1466476671
 H          3.8389516710        0.0938167928       -1.7396274127
 H          2.2753091459       -0.3099814060       -3.4063660458
 H         -0.0428310691       -0.9348155608       -3.9662440906
 H         -1.6083956233       -1.6273224189       -2.1907543557
 C         -1.1123519285       -1.8356811144        0.4857834979
 H         -0.5537308025       -1.7673657304        1.4299108879
 C         -1.5410303729       -3.2778143187        0.2899993275
 C         -0.5648903145       -4.3679903558        0.6090498000
 C         -1.7570785389       -4.1466776091        1.4901738492
 H         -2.5600631182       -4.8678963119        1.4658291233
 H         -1.5972146501       -3.7034209022        2.4628603886
 H         -0.5468477103       -5.2438205679       -0.0210134684
 H          0.4044490739       -4.0748035763        0.9848178707
 H         -2.2019689705       -3.4206611806       -0.5541340685
 O         -3.6040415444       -1.7252694826       -1.1386102107
