  62
        -98.94121005
 C         -0.8339998485       -1.6464910537       -0.7837269431
 C         -2.1197846130       -1.7310009378       -0.1944855578
 C         -3.0448877335       -0.6100885393       -0.4303081436
 C         -2.6231348591        0.4307671418       -1.1684775396
 C         -3.3398502555        1.7258339531       -1.4348423655
 C         -2.9664066867        2.7686684449       -0.3654990969
 C         -3.8768850669        2.7795407763        0.8601501517
 H         -3.4588531166        3.5009500804        1.5663042741
 H         -4.8702573456        3.1323003326        0.5733546063
 C         -4.0107678658        1.4277694830        1.5652589460
 H         -3.0276133439        0.9542075096        1.6210440618
 H         -4.3361744656        1.6137358679        2.5909918744
 C         -5.0171135369        0.4874156359        0.8855497810
 H         -5.6051334280        1.0549558879        0.1643619651
 H         -5.7206183717        0.1119827699        1.6318478914
 C         -4.4043314316       -0.7418173614        0.2013378752
 H         -5.1036892228       -1.1104403397       -0.5572471007
 H         -4.2896695654       -1.5447608576        0.9364789157
 H         -2.9885030717        3.7634950860       -0.8162685441
 H         -1.9405683246        2.5736783135       -0.0379341763
 H         -2.9942560255        2.0799334645       -2.4082906004
 H         -4.4146035056        1.5758446678       -1.4783884306
 O         -1.3947802717        0.4601501589       -1.7474235714
 C         -0.4645035399       -0.5483539137       -1.5604313061
 O          0.6168433433       -0.3344361105       -2.1434545799
 O         -2.4793487230       -2.7112110180        0.5152449467
 C          0.1484908067       -2.7475906935       -0.4205620663
 C          0.9108648392       -2.3330236034        0.8177367315
 C          1.0501665762       -3.1828861051        1.9082732086
 C          1.6894381119       -2.7509352497        3.0575105330
 C          2.1633180893       -1.4547450804        3.1571587003
 C          2.0295030041       -0.5993523298        2.0697997207
 C          1.4482481108       -1.0572322386        0.8986732842
 H          1.3735496541       -0.3886340005        0.0572246014
 N          2.4575628778        0.7357369765        2.1196072178
 S          1.5234456601        1.9030571800        1.3541028399
 O          1.8372706309        3.1294916984        2.0626283980
 O          0.1240809699        1.5432897300        1.3306793785
 C          2.1854461458        2.0343221674       -0.2911517277
 C          1.3665528928        2.5162127629       -1.2910657620
 C          1.8864339453        2.6798428365       -2.5643045335
 C          3.2111921283        2.3613564538       -2.8133156679
 C          4.0220585750        1.8806374036       -1.7970105655
 C          3.5089252854        1.7173972484       -0.5207589034
 H          4.1087191897        1.3373392334        0.2896877568
 H          5.0511250973        1.6273440881       -1.9961694330
 H          3.6112614058        2.4823903837       -3.8077957989
 H          1.2508031020        3.0426078353       -3.3560774932
 H          0.3346570694        2.7341583627       -1.0642023754
 H          2.7841715001        1.0517727707        3.0213838230
 H          2.6221656774       -1.1037834134        4.0688708304
 H          1.7930447019       -3.4209578281        3.8974995629
 H          0.6335920504       -4.1780334125        1.8619332738
 H         -0.4660069443       -3.6195458989       -0.1570893906
 C          1.0993809482       -3.1454905493       -1.5306908727
 C          1.7105082561       -4.5135251151       -1.5108792464
 C          0.6699405885       -4.1719107679       -2.5338609449
 H          0.9732565334       -4.0427818054       -3.5616165791
 H         -0.3162838632       -4.5982754773       -2.4206240454
 H          2.7337307625       -4.6229204168       -1.8351304321
 H          1.4300217394       -5.1778887052       -0.7078078693
 H          1.7073500896       -2.3247921910       -1.8874981603
