  62
        -98.94488935
 C          1.9383140069       -0.5005441175        0.6389363367
 C          3.0017632415       -1.3078551193        0.1676380288
 C          4.3419597731       -0.7194493832        0.2618808439
 C          4.4953487633        0.5088303226        0.7894087156
 C          5.8000308944        1.2356438328        0.9737970472
 C          6.2810082150        1.9819508842       -0.2782688612
 C          6.8073865255        1.0913891289       -1.4045016443
 H          7.3083175140        1.7447070745       -2.1216510147
 H          7.5590620229        0.4096107088       -1.0054611320
 C          5.7219831845        0.2922928519       -2.1391873421
 H          4.7427119271        0.7265408103       -1.9244003917
 H          5.8777431706        0.3724393202       -3.2173917141
 C          5.6898613510       -1.1968484710       -1.7951406217
 H          4.8639182064       -1.6575662098       -2.3428658790
 H          6.6175897540       -1.6694588481       -2.1251931811
 C          5.4933792731       -1.4956062386       -0.3030149007
 H          6.4074030550       -1.2762830124        0.2482146423
 H          5.2637897231       -2.5582496558       -0.1930962704
 H          5.4607725507        2.5985187088       -0.6533657591
 H          7.0855858040        2.6527563141        0.0318119777
 H          6.5685913843        0.5336509769        1.2985216727
 H          5.6380728663        1.9666054678        1.7689590772
 O          3.4487585124        1.2463177640        1.2472433277
 C          2.1456958495        0.7737043818        1.1667985862
 O          1.2876974108        1.5677211606        1.5967616955
 O          2.8376399586       -2.4625863430       -0.3089659591
 C          0.5210646443       -1.0414159192        0.5567441433
 C         -0.3084726351       -0.1367875111       -0.3194016256
 C          0.0910771399        0.0496837902       -1.6415936532
 C         -0.6056954153        0.8981191336       -2.4782308181
 C         -1.7240785280        1.5719992029       -2.0177611929
 C         -2.1341463991        1.3911515438       -0.7030507828
 C         -1.4313355091        0.5345065690        0.1357416103
 H         -1.7616642581        0.4307458223        1.1549500429
 N         -3.2523071489        2.0811390858       -0.2083487858
 S         -4.4062178822        1.3017353335        0.7141596662
 O         -5.5310387235        2.2107034477        0.7265284488
 O         -3.8676083551        0.9348514545        1.9981694435
 C         -4.8157026159       -0.1538155073       -0.2311044723
 C         -5.7225392959       -0.0283274861       -1.2658580267
 C         -6.0016932023       -1.1346294653       -2.0512516943
 C         -5.3650757569       -2.3399168776       -1.7956570510
 C         -4.4574817734       -2.4490938794       -0.7535959373
 C         -4.1767034692       -1.3468094045        0.0386341006
 H         -3.4801231046       -1.3948199780        0.8590100739
 H         -3.9648405577       -3.3874443897       -0.5543910613
 H         -5.5791266716       -3.2004090439       -2.4097382922
 H         -6.7106250491       -1.0541433349       -2.8594685643
 H         -6.2024124666        0.9240485981       -1.4233163060
 H         -3.6895630250        2.6980593631       -0.8771521926
 H         -2.2660713756        2.2433785208       -2.6663868621
 H         -0.2794152368        1.0366989676       -3.4979208954
 H          0.9672582398       -0.4745787712       -1.9981778117
 H          0.6138501090       -2.0164647139        0.0562112852
 C         -0.0497719965       -1.2597258138        1.9408495976
 C         -1.1070786059       -2.2986859265        2.1600589727
 C          0.2832666997       -2.5243000310        2.6721383578
 H          0.4589534507       -2.4729031599        3.7361991065
 H          0.9060465969       -3.2437117233        2.1607152135
 H         -1.8916861940       -2.0920176909        2.8732016474
 H         -1.4229269212       -2.8747276206        1.3031769467
 H         -0.1002878638       -0.3484760113        2.5266560982
