  62
        -98.94740249
 C         -2.5391573798       -0.2206693028       -0.0103437969
 C         -2.2584580045       -1.2443446572       -0.9452341682
 C         -1.6992070355       -2.4820756217       -0.3922368667
 C         -1.4929562414       -2.5859993938        0.9333696797
 C         -0.9523490262       -3.7911743489        1.6546727873
 C          0.5799610456       -3.8728410902        1.6587092925
 C          1.2071419852       -4.2845359023        0.3264018844
 H          2.2496930849       -4.5397064920        0.5260691247
 H          0.7150022535       -5.1835142299       -0.0469697724
 C          1.1682309300       -3.1881602070       -0.7465734601
 H          2.1421075431       -3.1183588684       -1.2382091655
 H          0.9930890218       -2.2178790864       -0.2754177448
 C          0.1287616736       -3.3984205840       -1.8479010278
 H          0.1607042346       -2.5231873263       -2.5027983427
 H          0.3953249174       -4.2765064189       -2.4416284848
 C         -1.3113483289       -3.5702329681       -1.3477000629
 H         -1.9810689517       -3.5080665372       -2.2094610690
 H         -1.4316776858       -4.5475429439       -0.8798059805
 H          0.8675040103       -4.6047112597        2.4173207289
 H          0.9778862737       -2.8999027339        1.9579683615
 H         -1.2970635514       -3.7126554880        2.6880318327
 H         -1.3673582109       -4.6993735893        1.2161808221
 O         -1.7900518884       -1.5841124075        1.8020914699
 C         -2.2725284867       -0.3662028327        1.3510199076
 O         -2.4446600327        0.4810782509        2.2493706817
 H         -0.4294342062        0.9359973386       -0.9458441923
 C         -0.6648333359        1.8631371124       -0.4429698878
 C         -1.9898764898        2.1660390826       -0.1558236815
 C         -2.2736797992        3.3736840664        0.4668372399
 C         -1.2461875420        4.2287202736        0.8291824706
 C          0.0747337599        3.8935229224        0.5971731282
 C          0.3666497135        2.6963775603       -0.0484324490
 N          1.6939798954        2.3167870211       -0.3180621108
 S          2.0384708448        0.6607758401       -0.3225609216
 O          1.7170760761        0.1354093717       -1.6255108191
 O          1.4239580522        0.0130879514        0.8145356298
 C          3.8103729449        0.7034338316       -0.1269680875
 C          4.3665550127        0.4628403030        1.1147157465
 C          5.7439821296        0.5297805858        1.2570083722
 C          6.5366049607        0.8380775685        0.1617427592
 C          5.9638999318        1.0756721347       -1.0791777142
 C          4.5879454969        1.0080693853       -1.2285599836
 H          4.0974478180        1.1738189230       -2.1734790668
 H          6.5833893397        1.3119153961       -1.9291508788
 H          7.6077999293        0.8907507608        0.2754324314
 H          6.1914545357        0.3415123917        2.2195964485
 H          3.7096987306        0.2208683233        1.9350908536
 H          2.3689437860        2.8398918561        0.2231945931
 H          0.8739605841        4.5467738886        0.9127111972
 H         -1.4780584717        5.1606830161        1.3222484351
 H         -3.2952337487        3.6369374309        0.6869838095
 C         -3.0270728989        1.1283953782       -0.5107855550
 H         -3.0708856553        1.0380999422       -1.6067598637
 C         -4.4113126136        1.4426314191        0.0133602883
 C         -5.3227841275        2.3458713380       -0.7613812810
 C         -5.6021905199        0.8753184012       -0.6972222183
 H         -6.4385168393        0.5319381724       -0.1072335013
 H         -5.4140585216        0.2776851427       -1.5772684637
 H         -5.9724649628        3.0134175796       -0.2159268615
 H         -4.9519134316        2.7503492290       -1.6909689067
 H         -4.4449713848        1.4819934918        1.0962902476
 O         -2.4721903730       -1.1299944190       -2.1839517385
