  62
        -98.94003934
 C          2.2502144329        1.0718745336       -0.4096752859
 C          3.5583490210        1.0173215024        0.1344064684
 C          4.4029575786       -0.0956335963       -0.3156245397
 C          3.9078980124       -0.9769268765       -1.2034435974
 C          4.6333982013       -2.1935373156       -1.6996520361
 C          4.3253952346       -3.4166553881       -0.8245444780
 C          4.4791868092       -3.1575203984        0.6742947671
 H          3.7183373240       -2.4398080350        0.9907211297
 H          4.2667231137       -4.0968471805        1.1894447600
 C          5.8654875168       -2.6467017777        1.0915928902
 H          6.1858032651       -3.1929518462        1.9812032159
 H          6.5895172825       -2.8569815285        0.3037351254
 C          5.9150429791       -1.1581335192        1.4409327343
 H          5.1255823515       -0.9246254297        2.1597099347
 H          6.8724083101       -0.9549011964        1.9278773241
 C          5.7892413952       -0.1904887975        0.2572834590
 H          6.5090012395       -0.4604098725       -0.5177821696
 H          6.0326582598        0.8122299466        0.6200845197
 H          3.2946996694       -3.7261605777       -1.0139951330
 H          4.9863434217       -4.2316317191       -1.1252204951
 H          4.3055694900       -2.3965061968       -2.7205207966
 H          5.7034797245       -1.9957667496       -1.7035738253
 O          2.6555085505       -0.8838238668       -1.7184473195
 C          1.7864579455        0.1261526163       -1.3247476992
 O          0.6676632608        0.0671916778       -1.8694086783
 O          3.9987297393        1.8615518952        0.9600395814
 C          1.3268107026        2.1781360781        0.0761868270
 C          0.3166791266        1.5629078113        1.0141682486
 C          0.7173627933        1.2617173106        2.3143833436
 C         -0.1533511052        0.6575226931        3.1997408955
 C         -1.4393891551        0.3352695079        2.8031644849
 C         -1.8499621549        0.6312315316        1.5086950664
 C         -0.9753602934        1.2469807085        0.6224673039
 H         -1.3080613123        1.4454595863       -0.3823556737
 N         -3.1675674125        0.3447570498        1.1034018692
 S         -3.4190549351       -0.3281921047       -0.4280534372
 O         -2.5849662730       -1.4966179554       -0.5991183345
 O         -3.3166601115        0.7100173529       -1.4205189120
 C         -5.1267958354       -0.8201105116       -0.2602044975
 C         -6.1081153264        0.1463918016       -0.3744077374
 C         -7.4342513192       -0.2229060171       -0.2154693278
 C         -7.7560895423       -1.5449682704        0.0541189528
 C         -6.7609754577       -2.5043167960        0.1640816927
 C         -5.4324777791       -2.1408892011        0.0075138239
 H         -4.6252153657       -2.8525295366        0.0757449697
 H         -7.0136001505       -3.5319634588        0.3701662637
 H         -8.7890314670       -1.8300629031        0.1764387799
 H         -8.2108343850        0.5196634825       -0.3027088823
 H         -5.8100678504        1.1583885054       -0.5929662907
 H         -3.6619324544       -0.2019820678        1.7973100929
 H         -2.1217752042       -0.1407952839        3.4913416865
 H          0.1708873657        0.4302912339        4.2041659254
 H          1.7283027502        1.5007930772        2.6142101882
 H          1.9686339063        2.8467311079        0.6674679177
 C          0.7131645118        2.9748022047       -1.0535346506
 C          0.1212016941        4.3193796942       -0.7578697749
 C          1.4018362458        4.2175641268       -1.5291643945
 H          1.3887756697        4.4396880656       -2.5856709533
 H          2.3196812015        4.5000353987       -1.0343918421
 H         -0.7758191909        4.6112644385       -1.2822369939
 H          0.1704677412        4.6707821050        0.2617529895
 H          0.2267213127        2.3611947846       -1.8021300833
