  62
        -98.93276487
 C          1.8217793863        0.7100099712        0.8091855989
 C          2.2122965213       -0.6420859773        0.6483008718
 C          3.6489221672       -0.9213077899        0.4620936427
 C          4.5097951146        0.1129447240        0.4642847863
 C          6.0022970751        0.0893214515        0.2650266706
 C          6.4021011258       -0.1171209035       -1.2044554257
 C          5.6171795472       -1.2023628530       -1.9363561869
 H          4.5534636448       -0.9601436681       -1.9015263969
 H          5.9203272094       -1.1798526931       -2.9865169854
 C          5.8323566746       -2.6224827435       -1.4183759395
 H          5.2955490372       -3.2966197033       -2.0907269849
 H          6.8946462627       -2.8692430129       -1.4801364498
 C          5.3509069019       -2.8951439456        0.0085557880
 H          6.0522914782       -2.5058745809        0.7417111136
 H          5.3325964783       -3.9805970514        0.1432627763
 C          3.9420994029       -2.3946199349        0.3113566850
 H          3.2559262480       -2.7625485248       -0.4599154470
 H          3.5996438003       -2.8583273362        1.2442370694
 H          6.2406886241        0.8250580762       -1.7340521392
 H          7.4684122984       -0.3466059673       -1.2425651424
 H          6.3767980251        1.0613693252        0.5937221005
 H          6.4518142928       -0.6696079157        0.8985208731
 O          4.0918189907        1.3997920761        0.6229569595
 C          2.7585580281        1.7437335416        0.7889750700
 O          2.5704498291        2.9681470847        0.9031388290
 H         -2.0164581815       -0.0356726953        0.1976764798
 C         -1.6012726906        0.6393959921       -0.5343768833
 C         -0.3690954760        1.2312393203       -0.2991984606
 C          0.1654080112        2.0723484449       -1.2692822988
 C         -0.5268033186        2.3146676879       -2.4420765002
 C         -1.7709224376        1.7481328574       -2.6578007766
 C         -2.3148540816        0.9079897136       -1.6938737298
 N         -3.5736415550        0.3178190415       -1.8711416599
 S         -4.6219256195        0.2255278627       -0.5655344533
 O         -5.9387420790        0.1528667798       -1.1606972347
 O         -4.3983915214        1.3067172334        0.3643559884
 C         -4.2446824948       -1.3381210164        0.1951247756
 C         -4.2949006039       -2.4744659340       -0.5877477632
 C         -4.0157114096       -3.7002076508       -0.0057321947
 C         -3.6949153691       -3.7688974622        1.3417545574
 C         -3.6525596137       -2.6192319204        2.1150499586
 C         -3.9308244808       -1.3899214231        1.5386265942
 H         -3.9031492532       -0.4710605441        2.1036821173
 H         -3.4008416734       -2.6735830296        3.1621495945
 H         -3.4753483831       -4.7237435428        1.7927914305
 H         -4.0467428129       -4.5973936877       -0.6027554477
 H         -4.5515862529       -2.3810583909       -1.6297323793
 H         -4.0517985122        0.5833049496       -2.7198145263
 H         -2.3170222445        1.9543390004       -3.5658880182
 H         -0.1001773965        2.9665140364       -3.1897499121
 H          1.1209890845        2.5422783357       -1.0907778791
 C          0.3395984258        0.9666856913        1.0042747709
 H         -0.0576259376        0.0179811309        1.4003225819
 C          0.0439897767        2.0426333087        2.0402678881
 C         -0.4117157219        3.4241146264        1.6922220685
 C         -1.3678962117        2.4624462795        2.3282397575
 H         -1.6541795544        2.6261042105        3.3565883799
 H         -2.1599178155        2.0630027050        1.7105799636
 H         -0.5505091895        3.6665912763        0.6503833435
 H         -0.0215106500        4.2430436499        2.2769289359
 H          0.7070831429        1.9634170410        2.8965608236
 O          1.3862736296       -1.5951384852        0.6631900561
