  62
        -98.94943810
 C         -1.2074633332       -1.6073865118       -0.2865201579
 C         -2.4740771977       -1.3236354979        0.2729600277
 C         -3.1417704385       -0.1199441284       -0.2339352098
 C         -2.5374610083        0.6332103598       -1.1704742481
 C         -3.0760116163        1.9057537187       -1.7659625098
 C         -2.8101347196        3.1465650094       -0.9014716124
 C         -3.6889161148        3.2702036460        0.3439343198
 H         -3.5782103183        4.2921113548        0.7124498149
 H         -4.7357496688        3.1325348254        0.0694174178
 C         -3.3152650255        2.3014973108        1.4746148495
 H         -2.2976713049        1.9341298047        1.3176255303
 H         -3.3064148165        2.8412123511        2.4250826623
 C         -4.2671411944        1.1161842997        1.6397254226
 H         -5.2469505732        1.4776909494        1.9618260892
 H         -3.8714255032        0.4694776471        2.4272034324
 C         -4.4548987854        0.2658303010        0.3772502068
 H         -4.9705778426       -0.6552006880        0.6617693211
 H         -5.0687093745        0.8005744715       -0.3475267027
 H         -2.9759645161        4.0260228535       -1.5285690451
 H         -1.7611389723        3.1470954049       -0.5925381492
 H         -4.1474403883        1.8078652512       -1.9439576801
 H         -2.5747251963        2.0383775510       -2.7272498433
 O         -1.3345311482        0.3059640316       -1.7112801719
 C         -0.6273565230       -0.8015794942       -1.2662916479
 O          0.4782324754       -0.9622991244       -1.8164623269
 O         -3.0180167979       -2.0391515910        1.1588017793
 C         -0.4040474870       -2.7762906265        0.2475460829
 C          0.9375322432       -2.3064793979        0.7583913046
 C          2.0729352864       -3.1084922157        0.7337064685
 C          3.2813329462       -2.6311584831        1.2104294103
 C          3.3933872441       -1.3404554968        1.6950144142
 C          2.2637626316       -0.5321475605        1.7260406294
 C          1.0475037783       -1.0286420642        1.2890525279
 H          0.1807530010       -0.3867850296        1.3379469415
 N          2.3185783835        0.7972734496        2.1881309991
 S          1.6838639431        1.9955925734        1.2083896296
 O          2.2263605603        3.2237196650        1.7560862815
 O          0.2457672420        1.9145052943        1.1736540068
 C          2.3654514707        1.7434183265       -0.4207203391
 C          1.5472437658        1.8844922028       -1.5204079942
 C          2.0868546455        1.7250473478       -2.7863801187
 C          3.4313232946        1.4262906656       -2.9298800147
 C          4.2450329887        1.2953447028       -1.8150587638
 C          3.7110868623        1.4592409061       -0.5481922493
 H          4.3266923558        1.3730734700        0.3321855870
 H          5.2918400463        1.0637184027       -1.9294381186
 H          3.8467374400        1.2936793382       -3.9164863590
 H          1.4494964240        1.8217777570       -3.6505387881
 H          0.5013613243        2.0986179649       -1.3708960826
 H          3.2194793232        1.0795869645        2.5475369097
 H          4.3410704324       -0.9632586487        2.0481640853
 H          4.1526630477       -3.2675571846        1.1881101476
 H          2.0102961176       -4.1088207032        0.3371045189
 H         -0.9825268973       -3.1695187815        1.0978019703
 C         -0.2821280834       -3.8643093101       -0.8016253693
 C         -0.2794858001       -5.3104848683       -0.4072818464
 C         -1.4754172040       -4.7229377360       -1.0921479937
 H         -1.6757110210       -4.9993255987       -2.1163580333
 H         -2.3654888211       -4.5435481334       -0.5066803851
 H          0.3417505263       -5.9953804100       -0.9646337972
 H         -0.3662213880       -5.5447177146        0.6430910135
 H          0.3318602935       -3.5592465982       -1.6415774481
