  62
        -98.93821102
 C         -2.5471420694       -1.3121838928        0.1353951198
 C         -2.6350762419       -0.3863318269       -0.9297570196
 C         -3.5220728267        0.7746220645       -0.7198553513
 C         -4.1749303349        0.9045452144        0.4472147806
 C         -5.0596640113        2.0386461290        0.8846070730
 C         -4.2499437697        3.0821336205        1.6731070474
 C         -3.5769192074        4.1562806942        0.8194524423
 H         -2.9358627385        4.7432692718        1.4811737131
 H         -4.3397911785        4.8281631001        0.4204203194
 C         -2.7299993949        3.6347617568       -0.3446452467
 H         -2.1266427232        2.7865041356       -0.0133909769
 H         -2.0331945542        4.4250618944       -0.6322550331
 C         -3.5680404896        3.2406556477       -1.5701889238
 H         -3.1563690688        3.7252410497       -2.4580965518
 H         -4.5795107902        3.6276980604       -1.4476464706
 C         -3.6233723680        1.7358255714       -1.8732036803
 H         -2.7894675400        1.4695173152       -2.5302322359
 H         -4.5413798744        1.5177373973       -2.4291118688
 H         -3.4934541041        2.5496215083        2.2556324013
 H         -4.9153990150        3.5813152214        2.3802592471
 H         -5.5601422649        2.4897286154        0.0331244920
 H         -5.8115719677        1.6082005147        1.5491500189
 O         -4.0590925133       -0.0060601429        1.4515955109
 C         -3.2526737300       -1.1187782878        1.3278120195
 O         -3.2491892739       -1.8613835520        2.3295309914
 H          0.0337344456       -1.1435508279       -1.4711087757
 C          0.4951638939       -1.4329074622       -0.5386676136
 C         -0.2359147570       -2.1711002066        0.3812911657
 C          0.3606680977       -2.5008963454        1.5928492193
 C          1.6560863735       -2.1019730283        1.8718892163
 C          2.3790303152       -1.3613713648        0.9537202659
 C          1.7869860053       -1.0168216455       -0.2540328745
 N          2.5063465251       -0.2409599086       -1.1849429627
 S          3.0770878937        1.2414664238       -0.6310617048
 O          2.2602324563        1.7550677939        0.4452721437
 O          3.1924638509        2.0751805716       -1.8077920065
 C          4.7109048945        0.8616977578       -0.0323159680
 C          5.0535697703        1.1551052902        1.2729450747
 C          6.3331455817        0.8540347694        1.7135886752
 C          7.2422654612        0.2691468726        0.8454335880
 C          6.8831415441       -0.0167098073       -0.4635393482
 C          5.6061212181        0.2824825783       -0.9104380109
 H          5.2872670085        0.0807393421       -1.9193422251
 H          7.5930769561       -0.4711895235       -1.1356417979
 H          8.2366749113        0.0349140593        1.1912343211
 H          6.6139469981        1.0759227997        2.7306687364
 H          4.3108493260        1.6043619388        1.9129962841
 H          2.0032806153       -0.1096657582       -2.0520176453
 H          3.3850280261       -1.0394779584        1.1686885718
 H          2.1061035441       -2.3660158844        2.8167816496
 H         -0.2084917614       -3.0553538926        2.3250938953
 C         -1.6684592361       -2.5553283837        0.0966463118
 H         -2.0161134739       -3.1855013212        0.9259199118
 C         -1.8018357972       -3.3439923389       -1.1906816834
 C         -1.3885290692       -4.7838087934       -1.2032082611
 C         -2.8400323189       -4.4196269726       -1.2836013930
 H         -3.3575088195       -4.5551758890       -2.2214227531
 H         -3.4592346133       -4.5928931384       -0.4152822207
 H         -1.0235149910       -5.2065220262       -0.2794268853
 H         -0.9064284994       -5.1730422624       -2.0866831310
 H         -1.6178047941       -2.7579506638       -2.0809160105
 O         -2.0098321782       -0.4956085305       -2.0201827178
