  62
        -98.94094534
 C         -2.0183043100       -1.3441985801        0.3612231489
 C         -2.4935780500       -0.6336234497       -0.7692943908
 C         -3.6896400200        0.1917989402       -0.5452402405
 C         -4.2601922199        0.2390374399        0.6712817795
 C         -5.4935020799        1.0157890199        1.0445628998
 C         -5.2220609698        2.4860558797        1.3916905002
 C         -4.8734694898        3.3819570201        0.2022542005
 H         -5.6319982998        3.2669809603       -0.5725808195
 H         -4.9211843497        4.4145365300        0.5538945408
 C         -3.4821111998        3.1290010902       -0.3958101297
 H         -2.9758878798        4.0831382102       -0.5597767894
 H         -2.8751733298        2.5661519800        0.3175780701
 C         -3.4909802299        2.3859216706       -1.7319465199
 H         -3.9782430599        3.0029185208       -2.4902283197
 H         -2.4546966399        2.2267300706       -2.0421970200
 C         -4.1886049300        1.0199574606       -1.6903470503
 H         -5.2686903000        1.1502190506       -1.6262850302
 H         -3.9525998300        0.4878751609       -2.6151112204
 H         -4.4157316997        2.5283503195        2.1277810202
 H         -6.1239234297        2.8814076496        1.8646449304
 H         -6.2213807999        0.9601785001        0.2347685898
 H         -5.9146062198        0.5266956596        1.9257033197
 O         -3.7658579699       -0.4486410004        1.7352461693
 C         -2.6213176999       -1.2216297704        1.6153167090
 O         -2.2412518399       -1.7383889708        2.6855699788
 H          0.2143289701        0.1606769296        0.9443992193
 C          0.7073944700       -0.2243247101        0.0593051491
 C          0.3201975200       -1.4615735800       -0.4432519412
 C          0.9623849099       -1.9463106097       -1.5739968214
 C          1.9447913699       -1.1958075995       -2.1974137712
 C          2.3120010000        0.0430672503       -1.7072991409
 C          1.6846874300        0.5318689400       -0.5677060307
 N          2.0600175001        1.7851039498       -0.0538628403
 S          3.6941362202        2.1290025097        0.0531067297
 O          3.8106655802        3.0773428094        1.1389277500
 O          4.1821415201        2.5770165701       -1.2272474802
 C          4.4690017101        0.5814852296        0.4871934392
 C          4.1041057301       -0.0141831608        1.6784121790
 C          4.6650841301       -1.2344355809        2.0175010187
 C          5.5763962500       -1.8360889607        1.1627944284
 C          5.9370152500       -1.2225409103       -0.0265666714
 C          5.3779352500       -0.0022694802       -0.3712960310
 H          5.6284343200        0.5081038100       -1.2869056109
 H          6.6477093899       -1.6915852002       -0.6876342616
 H          6.0079650900       -2.7882637308        1.4280353481
 H          4.3861178901       -1.7121215512        2.9430750285
 H          3.3965428902        0.4820903191        2.3235638292
 H          1.5725466902        2.0486305696        0.7892178498
 H          3.0591249000        0.6477526404       -2.1951830407
 H          2.4256705698       -1.5783504793       -3.0846334513
 H          0.6743808598       -2.8987316695       -1.9866113717
 C         -0.7680280600       -2.2050925201        0.2928227686
 H         -0.4452779000       -2.3160987205        1.3414686486
 C         -1.0039158901       -3.6124068500       -0.2347131418
 C         -2.3392744902       -4.2777112799       -0.0898568319
 C         -1.8403809402       -3.8865794396       -1.4468389218
 H         -1.5248144303       -4.6705529794       -2.1198194621
 H         -2.2943484202       -3.0429921494       -1.9414909216
 H         -2.3642233002       -5.3254759200        0.1697684178
 H         -3.1419751201       -3.7015176700        0.3475883583
 H         -0.1362411301       -4.2481218900       -0.0880670620
 O         -1.9618565501       -0.6755580494       -1.9073010809
