  62
        -98.94142684
 C         -2.3116119549       -1.0988234020       -0.5537181725
 C         -3.6234506424       -0.9636759635       -0.0328467173
 C         -4.3476801206        0.2514127718       -0.4185984947
 C         -3.7543088007        1.1550059964       -1.2195790284
 C         -4.3666249042        2.4377451679       -1.7131217124
 C         -4.2523016649        3.6043533690       -0.7222415415
 C         -5.1639615900        3.5098717264        0.5018739451
 H         -5.1432657830        4.4851474057        0.9922576001
 H         -6.1892797148        3.3302022625        0.1770548617
 C         -4.7489956916        2.4381533511        1.5197413843
 H         -3.7127961563        2.1423691710        1.3369454473
 H         -4.7856431688        2.8591445376        2.5271221871
 C         -5.6293787530        1.1882768745        1.5190468987
 H         -5.2225407059        0.4834389706        2.2486060858
 H         -6.6410897319        1.4529254157        1.8342021913
 C         -5.7108430983        0.4736052052        0.1638789024
 H         -6.1693364007       -0.5058215142        0.3202014419
 H         -6.3310737123        1.0450130555       -0.5261446476
 H         -3.2123560437        3.6858100078       -0.3965722313
 H         -4.5028041790        4.5186502797       -1.2651941122
 H         -3.8299968820        2.7074793766       -2.6252028553
 H         -5.4150334504        2.2716304709       -1.9621632038
 O         -2.4953001550        0.9877125495       -1.7026327849
 C         -1.7348871331       -0.1246930287       -1.3688433791
 O         -0.5942348081       -0.1230749017       -1.8713361567
 O         -4.1639135824       -1.8214597987        0.7145097748
 C         -1.5058928144       -2.3227780646       -0.1483932392
 C         -0.3990080527       -1.8577857822        0.7648657503
 C         -0.6870229774       -1.5992885079        2.1023855448
 C          0.2802739994       -1.0879410796        2.9468858007
 C          1.5525911994       -0.8150193048        2.4745990219
 C          1.8456310751       -1.0606666325        1.1404851251
 C          0.8782304057       -1.5924556122        0.2976309884
 H          1.1147736305       -1.7625240161       -0.7406987677
 N          3.1351984723       -0.7774395275        0.6447456953
 S          3.7588288596        0.7439133218        1.0405432079
 O          4.3295490652        0.6679104314        2.3631061506
 O          2.7544122850        1.7668756459        0.8490302928
 C          5.0579302979        0.9058468774       -0.1679261446
 C          4.7469735016        1.4191369762       -1.4130936223
 C          5.7494194066        1.5202717821       -2.3648057661
 C          7.0370400708        1.1058401477       -2.0577818790
 C          7.3326983525        0.5912753864       -0.8043747697
 C          6.3353141386        0.4879773318        0.1523769340
 H          6.5172431896        0.1017405328        1.1415708259
 H          8.3350928383        0.2714115354       -0.5699427167
 H          7.8144022951        1.1868014229       -2.8010275016
 H          5.5216399995        1.9207226707       -3.3396729081
 H          3.7339040484        1.7364119392       -1.6069019431
 H          3.1751797085       -0.9126002021       -0.3573946128
 H          2.3121962514       -0.3956296482        3.1145469082
 H          0.0422932220       -0.8917150985        3.9818029678
 H         -1.6875556760       -1.7881439629        2.4665428103
 H         -2.1963921968       -2.9430886771        0.4386312901
 C         -1.0288707548       -3.1198094801       -1.3435819494
 C         -0.5091655372       -4.5102419654       -1.1364882211
 C         -1.8322222707       -4.2966024480       -1.8064397554
 H         -1.9098857254       -4.4804160999       -2.8675197204
 H         -2.7297682221       -4.5364295626       -1.2556110046
 H          0.3230762275       -4.8451078149       -1.7363632240
 H         -0.5071538937       -4.8939759659       -0.1275651878
 H         -0.5621104706       -2.5108977536       -2.1080897277
