  62
        -98.93448453
 C         -1.7827587778       -0.3005167154       -0.9205946426
 C         -3.1426191154       -0.5862259054       -1.1904306602
 C         -4.1557947983        0.1254998142       -0.3867695436
 C         -3.7389223167        0.9819541391        0.5638925619
 C         -4.5741422932        1.7875447088        1.5226860295
 C         -5.1339958946        0.9384459690        2.6758204970
 C         -5.6890032791       -0.4223643679        2.2625752921
 H         -4.9071543571       -0.9890894821        1.7532744277
 H         -5.9412420443       -0.9689678469        3.1752227049
 C         -6.9379569688       -0.3781402001        1.3853334641
 H         -7.7331460303        0.1449918801        1.9214311001
 H         -7.2643466874       -1.4102611642        1.2331241050
 C         -6.7691405232        0.2742104834        0.0117722476
 H         -6.7452777425        1.3575374889        0.0937827221
 H         -7.6581811952        0.0275582679       -0.5761428766
 C         -5.5688064672       -0.2221807771       -0.7885084025
 H         -5.6040710161       -1.3162629400       -0.8452026327
 H         -5.6756303206        0.1219165426       -1.8246796892
 H         -4.3248669369        0.7634943061        3.3892591182
 H         -5.9114951397        1.5126886883        3.1823569313
 H         -3.9191321504        2.5538923129        1.9429944138
 H         -5.3733081117        2.2922845154        0.9879509594
 O         -2.4175595822        1.1994318952        0.8144969175
 C         -1.4091635539        0.5716140306        0.1019521546
 O         -0.2624687207        0.8741355609        0.4765825272
 O         -3.5051991014       -1.4161854060       -2.0676018557
 C         -0.7325250063       -1.0299609567       -1.7381601846
 C          0.3378666312       -1.5891882914       -0.8342911276
 C         -0.0474822912       -2.3979806187        0.2324749520
 C          0.8871302026       -2.9130810271        1.1087627056
 C          2.2348629705       -2.6501874261        0.9319538564
 C          2.6317718764       -1.8567905589       -0.1340632592
 C          1.6884051604       -1.3331289902       -1.0111219874
 H          2.0186476047       -0.7014781934       -1.8210243177
 N          4.0075694306       -1.6061310782       -0.3251537968
 S          4.8178203039       -0.6697302613        0.8022530588
 O          6.2200714109       -0.7796837423        0.4675450100
 O          4.4402534422       -1.0972367873        2.1243790914
 C          4.2752890051        1.0036854837        0.5003969396
 C          2.9668972251        1.3425176414        0.7802637425
 C          2.5346803072        2.6282116824        0.4960055185
 C          3.4116142866        3.5492836742       -0.0550326281
 C          4.7245030528        3.1936219536       -0.3274539265
 C          5.1612008448        1.9078082389       -0.0538412511
 H          6.1703289975        1.5852283322       -0.2536643389
 H          5.4050916883        3.9122491563       -0.7552836667
 H          3.0683937455        4.5482281129       -0.2746017053
 H          1.5056509290        2.8800758232        0.6972567718
 H          2.2874926576        0.6169654609        1.1975505087
 H          4.2274224124       -1.2647633660       -1.2508774163
 H          2.9771165171       -3.0306314073        1.6140790363
 H          0.5668490569       -3.5286749748        1.9361174261
 H         -1.0997727512       -2.6059866106        0.3746019439
 H         -1.2775157444       -1.8810655871       -2.1805942423
 C         -0.1786459207       -0.2197038130       -2.9016077369
 C         -0.9405718106        0.9340748093       -3.4797745021
 C          0.3295320142        1.1795632764       -2.7246987284
 H          1.2042440059        1.4841478418       -3.2811412417
 H          0.2687438590        1.6082072215       -1.7369941604
 H         -0.9380098634        1.0622439135       -4.5518945715
 H         -1.8754415474        1.2046528514       -3.0107993772
 H          0.3516511433       -0.8440558647       -3.6145608147
