  62
        -98.93863355
 C         -1.8010571801       -0.0666508904        0.3390675704
 C         -2.9360140201       -0.5244854809        1.0460507700
 C         -4.2472774801       -0.0450555805        0.5750846103
 C         -4.3033601001        0.7863258803       -0.4823865291
 C         -5.4775457101        1.4686693508       -1.1536145186
 C         -6.9103518201        1.0414102406       -0.8464828289
 C         -7.2830137901       -0.3518650291       -1.3527296200
 H         -8.2814976701       -0.5949581193       -0.9829890402
 H         -7.3307723100       -0.3221529583       -2.4442432700
 C         -6.3219897101       -1.4728467994       -0.9650867308
 H         -5.3398224101       -1.2814376990       -1.4021681706
 H         -6.6952573101       -2.4008112490       -1.4068040315
 C         -6.1606530801       -1.7053272705        0.5356142890
 H         -7.1399201702       -1.8682461808        0.9898394289
 H         -5.5750905601       -2.6193481006        0.6659341484
 C         -5.4441931102       -0.5831059210        1.3056694099
 H         -6.1307440502        0.2193288888        1.5644271405
 H         -5.0657988602       -1.0051708117        2.2413139596
 H         -7.5635745101        1.7601444209       -1.3487647384
 H         -7.1085966001        1.1278304298        0.2177183111
 H         -5.3747009101        2.5332370706       -0.9155341878
 H         -5.2993218900        1.3776710016       -2.2299222186
 O         -3.1758861801        1.2055805107       -1.1309003187
 C         -1.9083883701        0.7940763405       -0.7509951890
 O         -0.9870745201        1.2579835510       -1.4494593486
 H          2.1795828399       -0.0570246601       -0.0034637195
 C          1.7710214599        0.7262345194        0.6123646411
 C          0.4666806899        0.6446841791        1.0751556310
 C         -0.0248065502        1.6777834885        1.8695760917
 C          0.7585677298        2.7756513083        2.1650437126
 C          2.0512040499        2.8656835286        1.6794133827
 C          2.5590677199        1.8329087192        0.9008870019
 N          3.8833663899        1.8771263895        0.4502665920
 S          4.4004003699        1.0955242506       -0.9297635286
 O          5.6952774799        1.6860239307       -1.1996651781
 O          3.4405527399        1.1673608614       -2.0056533686
 C          4.6388526999       -0.5952478298       -0.4230183498
 C          4.3870955599       -1.6030056191       -1.3326157906
 C          4.6164479199       -2.9183811794       -0.9593547616
 C          5.0899177899       -3.2018730304        0.3123062882
 C          5.3387724698       -2.1781879110        1.2136513890
 C          5.1171279499       -0.8609550908        0.8448357800
 H          5.2999194998       -0.0424877813        1.5205556306
 H          5.7054097898       -2.4024012318        2.2023251988
 H          5.2636336298       -4.2263086306        0.6013070775
 H          4.4240596899       -3.7150148189       -1.6606685022
 H          4.0055801099       -1.3381417084       -2.3063410104
 H          4.3695328499        2.7470618594        0.6069837326
 H          2.6619531099        3.7275229585        1.9008604333
 H          0.3593303698        3.5729705578        2.7738951131
 H         -1.0376033402        1.6119756982        2.2433331416
 C         -0.4252205701       -0.5336979207        0.7755040801
 H         -0.5911025702       -1.0851457814        1.7135389297
 C          0.1551650499       -1.4870520299       -0.2481299006
 C          1.0719482699       -2.5907071203        0.1853593286
 C         -0.3227611601       -2.9072174499       -0.2614760317
 H         -0.4641773401       -3.3943022492       -1.2146181921
 H         -1.0503893001       -3.1891573305        0.4854503781
 H          1.2961442198       -2.6673429610        1.2383708185
 H          1.8933752799       -2.8618134498       -0.4602588416
 H          0.3393147899       -1.0095909692       -1.2052261803
 O         -2.8588851902       -1.2935670716        2.0418063594
