  62
        -98.93367889
 C          2.4876939548       -0.0055280477       -0.6445616018
 C          2.3708818141        0.5959598418        0.6317525900
 C          2.0747897172        2.0356565336        0.6337716641
 C          1.9346102860        2.6850062320       -0.5354319298
 C          1.6221890472        4.1469385809       -0.6736954641
 C          0.1134135431        4.4042404224       -0.7785675110
 C         -0.7187722385        3.7065319613        0.2976853860
 H         -1.7551662054        4.0210202998        0.1520905050
 H         -0.6914845836        2.6272593881        0.1292764960
 C         -0.2914902881        4.0151424580        1.7392891872
 H          0.3003223352        4.9313173584        1.7630634486
 H         -1.1887743837        4.1926838680        2.3358784232
 C          0.4844176158        2.8903051345        2.4275531952
 H         -0.0410321534        1.9428775914        2.2802289863
 H          0.5031953380        3.0958539999        3.5013381137
 C          1.9371564626        2.7065519493        1.9710323545
 H          2.4520446002        3.6696366114        1.9774499285
 H          2.4323749267        2.0449998445        2.6877850747
 H         -0.0524291014        5.4826940098       -0.7286120860
 H         -0.2317827690        4.0505518083       -1.7531450925
 H          2.0318918539        4.6784114158        0.1834761658
 H          2.1058367814        4.5133562297       -1.5813815045
 O          2.0529498045        2.0716507785       -1.7425524536
 C          2.3060861060        0.7126865923       -1.8239167020
 O          2.3600112820        0.2670954769       -2.9914022968
 H          0.2200285186       -1.0934543701       -0.8218703926
 C          0.4415435438       -1.8363648506       -0.0685109938
 C          1.7677893018       -2.2204005609        0.1296414381
 C          2.0146501788       -3.1983223137        1.0826022804
 C          0.9725382113       -3.7474646271        1.8148702141
 C         -0.3312262528       -3.3330176688        1.6357126901
 C         -0.5949722835       -2.3477120161        0.6880235480
 N         -1.8976824387       -1.8450961289        0.5303045959
 S         -2.2834920604       -0.7543294127       -0.6833823774
 O         -2.1426553700       -1.3673577195       -1.9884892669
 O         -1.5569304324        0.4692312121       -0.4612658058
 C         -4.0111274102       -0.5082893188       -0.3206853724
 C         -4.9525385252       -1.3143841783       -0.9326180585
 C         -6.2917400927       -1.1364923759       -0.6230114641
 C         -6.6650990631       -0.1613567775        0.2896781206
 C         -5.7094626242        0.6419355416        0.8939095069
 C         -4.3687348122        0.4685289181        0.5886578700
 H         -3.5904942729        1.0729156950        1.0254803825
 H         -6.0030886272        1.4020919296        1.5996776854
 H         -7.7077789398       -0.0239140503        0.5287079075
 H         -7.0369440217       -1.7568869984       -1.0941777308
 H         -4.6170202594       -2.0500646262       -1.6458632783
 H         -2.6308812665       -2.5127417162        0.7176743846
 H         -1.1339283601       -3.7491317033        2.2240272744
 H          1.1905559471       -4.5077416237        2.5498115445
 H          3.0122900668       -3.5396194887        1.2889669704
 C          2.7552770434       -1.5025175991       -0.7629314715
 H          2.4821760404       -1.7642309662       -1.8007636821
 C          4.2573019292       -1.7210486106       -0.6579651649
 C          5.0141417902       -1.9284270356        0.6155340186
 C          4.9427254786       -3.0299219005       -0.4017309972
 H          5.8337440870       -3.2415164617       -0.9747256457
 H          4.3433547632       -3.9029104537       -0.2042700497
 H          4.4466315630       -1.9974502020        1.5289653811
 H          5.9507095620       -1.4025948476        0.7330430244
 H          4.7442267145       -1.0819698970       -1.3929482259
 O          2.5113920497       -0.0295212779        1.7134834469
