  62
        -98.92931112
 C         -2.1680517544       -1.0159613296        0.2741807351
 C         -2.7673298470       -0.0190413324        1.0800305846
 C         -3.6035323094        0.9899969689        0.4040165622
 C         -3.7020990594        0.9487692064       -0.9376325494
 C         -4.5165060980        1.8368986212       -1.8399263722
 C         -6.0151504684        1.4939945659       -1.8107229379
 C         -6.5885481867        1.2312717933       -0.4205707777
 H         -7.6194214528        0.8899752702       -0.5461039519
 H         -6.0326705049        0.4172467338        0.0481865083
 C         -6.6076253711        2.4376317695        0.5150474016
 H         -7.1137083066        2.1284902340        1.4331834814
 H         -7.2013955116        3.2339117926        0.0607023263
 C         -5.2413182408        3.0107208585        0.8967561683
 H         -5.3981176836        3.6947730934        1.7360788614
 H         -4.8256555676        3.6063280883        0.0883544989
 C         -4.2225485145        1.9762964671        1.3654134692
 H         -3.3796053796        2.5039298526        1.8290346891
 H         -4.6640098638        1.3773165646        2.1702045052
 H         -6.1651165899        0.5912347881       -2.4077080880
 H         -6.5643286443        2.3083044059       -2.2861540957
 H         -4.1425892335        1.6796084388       -2.8540729350
 H         -4.3505375020        2.8795979625       -1.5854546001
 O         -3.0603247698        0.0055625042       -1.6810576164
 C         -2.2835454159       -0.9932324858       -1.1166323451
 O         -1.7717739264       -1.7614287585       -1.9482209396
 O         -2.6187529435        0.0291728089        2.3333149838
 C         -1.3162128652       -2.0681060803        0.9753068571
 C          0.1043534432       -1.9182670051        0.4917536104
 C          0.6982513713       -2.6180849299       -0.5514259511
 C          1.9903614318       -2.3208604155       -0.9522007586
 C          2.7197334246       -1.3200192638       -0.3385124811
 C          2.1325357547       -0.5980845034        0.6918196597
 C          0.8457449893       -0.9079003698        1.1000822872
 H          0.3895490067       -0.3323600168        1.8966359153
 N          2.8568271722        0.4369997481        1.3160138881
 S          3.4497958447        1.6521308046        0.3152924315
 O          3.5745225371        2.8165831199        1.1655448131
 O          2.6370338342        1.8053178915       -0.8700735048
 C          5.0778612265        1.0800203519       -0.1232973316
 C          5.4186894439        0.9241969077       -1.4525129386
 C          6.6939139263        0.4820770186       -1.7694715132
 C          7.6002362635        0.2060803167       -0.7571559328
 C          7.2428173758        0.3704944111        0.5729691266
 C          5.9703088278        0.8131584667        0.8966645815
 H          5.6533325013        0.9583040605        1.9158281924
 H          7.9504347612        0.1549425598        1.3571702533
 H          8.5911442305       -0.1389589918       -1.0067307368
 H          6.9733022094        0.3543255267       -2.8029731032
 H          4.6780854090        1.1452180507       -2.2047833141
 H          2.3677558482        0.8464944484        2.0998935010
 H          3.7223646165       -1.0849420808       -0.6562500354
 H          2.4313302871       -2.8770018320       -1.7655443968
 H          0.1498342067       -3.3720852514       -1.0859349022
 H         -1.3182638694       -1.7417243207        2.0274737018
 C         -1.9886131104       -3.4334635476        0.9898950286
 C         -2.1564459636       -4.3519177774       -0.1816607636
 C         -1.2440161425       -4.7337324755        0.9448102086
 H         -1.5607258274       -5.5234688988        1.6097843332
 H         -0.1790559575       -4.6995343784        0.7794805402
 H         -3.1009239608       -4.8705836180       -0.2697251989
 H         -1.7500232903       -4.0521185376       -1.1329103263
 H         -2.8412822741       -3.4025426156        1.6647344679
