  62
        -98.94058916
 C          2.2388511300        0.8102831345       -0.1559999708
 C          3.4871642235        1.3064788727        0.2903822579
 C          4.6731565883        0.6484349087       -0.2681177612
 C          4.5248522941       -0.3460041532       -1.1623677565
 C          5.6377888074       -1.1002775088       -1.8384463425
 C          6.1986560847       -2.2625872572       -1.0073933812
 C          7.0543374383       -1.8520861412        0.1917313611
 H          7.5559722736       -2.7531337314        0.5502090999
 H          7.8280458636       -1.1574507988       -0.1365242951
 C          6.2626055425       -1.2335056161        1.3522791161
 H          5.2024059102       -1.4707408507        1.2361315626
 H          6.5886753648       -1.6798132386        2.2944658638
 C          6.4190919904        0.2809344226        1.4900265387
 H          5.7890144324        0.6169266592        2.3174675786
 H          7.4554765720        0.5212358825        1.7368890273
 C          6.0186232384        1.0731769415        0.2385451704
 H          6.7729159103        0.9556292734       -0.5389539640
 H          5.9533271533        2.1301267205        0.5078365933
 H          5.3650897828       -2.8811880936       -0.6665058865
 H          6.8134982895       -2.8720395712       -1.6737090410
 H          5.2198764470       -1.5075277050       -2.7616104056
 H          6.4438397291       -0.4124545646       -2.0953341884
 O          3.3058185995       -0.7814284475       -1.5808386732
 C          2.1350058795       -0.2324243144       -1.0761941008
 O          1.0930428483       -0.7509761665       -1.5229667354
 O          3.6032851938        2.2502000447        1.1172701084
 C          0.9655476577        1.4332825666        0.3864522389
 C          0.0934691878        0.3688238187        1.0035481332
 C          0.6540964896       -0.4959263541        1.9401780618
 C         -0.0989558092       -1.5042544681        2.5079165387
 C         -1.4239618766       -1.6743561262        2.1476298412
 C         -1.9999022023       -0.8062584002        1.2274246027
 C         -1.2454852679        0.2215524527        0.6772110293
 H         -1.7058948722        0.8775409693       -0.0400486524
 N         -3.3633887724       -0.9367142034        0.9041068419
 S         -3.9926041683       -0.8545946490       -0.6563553494
 O         -4.0483475484       -2.1901020460       -1.2158516617
 O         -3.3165805009        0.1479218824       -1.4352214320
 C         -5.6436039913       -0.3010414958       -0.2728289193
 C         -6.7179836556       -1.1577152236       -0.4077909502
 C         -7.9855758588       -0.6992544959       -0.0830862931
 C         -8.1548075122        0.5996403466        0.3704238510
 C         -7.0653409256        1.4485855111        0.5007164915
 C         -5.7966791177        0.9962824004        0.1769977986
 H         -4.9225963814        1.6214692230        0.2585083597
 H         -7.2003650669        2.4584671292        0.8531488912
 H         -9.1415359085        0.9542678666        0.6231366928
 H         -8.8345071796       -1.3559130349       -0.1848433947
 H         -6.5397244313       -2.1577767617       -0.7684762858
 H         -3.7822992442       -1.7388267577        1.3571466402
 H         -2.0089898487       -2.4738320267        2.5774705824
 H          0.3500819274       -2.1719796307        3.2281194505
 H          1.6951372145       -0.3724506245        2.2076164794
 H          1.2916164428        2.1214814841        1.1809307767
 C          0.2730326271        2.2349877391       -0.6952506884
 C         -0.5775392926        3.4146444792       -0.3333614063
 C          0.7530602616        3.6232183020       -0.9900347520
 H          0.7779040221        3.9523729632       -2.0180742186
 H          1.5676170158        4.0015117438       -0.3897559709
 H         -1.4699975029        3.5979235968       -0.9126738939
 H         -0.6693604122        3.6612740593        0.7135602824
 H         -0.0362292702        1.6221974673       -1.5359511453
