  62
        -98.93885079
 C          2.3485957676        0.7377340788        0.5902731596
 C          3.4166911680        0.9879361481       -0.3062753448
 C          4.6949318881        0.3337052967        0.0153117767
 C          4.7868423539       -0.4512618514        1.1029760153
 C          6.0097293771       -1.2201059757        1.5096739600
 C          6.0085076519       -2.6304727897        0.9034930649
 C          5.7191257348       -2.6580246039       -0.5973346903
 H          5.7746978095       -3.7000944211       -0.9195969863
 H          4.6931939313       -2.3235027693       -0.7683489882
 C          6.6770803339       -1.8089159546       -1.4445301873
 H          6.9780690923       -2.3888716354       -2.3194797700
 H          7.5806925533       -1.5900263172       -0.8745340351
 C          6.0756326433       -0.5011829093       -1.9622844743
 H          5.1209179459       -0.7060843252       -2.4530168493
 H          6.7512868834       -0.0920374509       -2.7181145227
 C          5.8512488534        0.5919511143       -0.9100179137
 H          6.7698240701        0.7505285063       -0.3417553304
 H          5.6098661672        1.5179023610       -1.4397826110
 H          6.9794544553       -3.0898376045        1.0975868917
 H          5.2438849877       -3.2239090862        1.4101588028
 H          6.8965994333       -0.6765801357        1.1897100537
 H          6.0172130257       -1.3018610161        2.5978772468
 O          3.7420499577       -0.6709874462        1.9416321135
 C          2.5101102587       -0.0880431433        1.7081143928
 O          1.6453573833       -0.3713809440        2.5628635434
 H         -1.4432894647        0.2044136830        0.8659751534
 C         -1.1270953054        0.1058475868       -0.1626879150
 C          0.1064492623        0.5981985939       -0.5618658759
 C          0.4947256272        0.4366572720       -1.8877450864
 C         -0.3404183301       -0.2004066541       -2.7871946676
 C         -1.5844584506       -0.6613177127       -2.3933586581
 C         -1.9796407372       -0.5069694037       -1.0700754434
 N         -3.2314717355       -0.9651267178       -0.6292199469
 S         -4.0424957260       -0.0307336481        0.5221338595
 O         -3.8582975527        1.3735885611        0.2351936661
 O         -3.6493393014       -0.4701004566        1.8378078020
 C         -5.7330296151       -0.5042038912        0.2080713719
 C         -6.4895544036        0.2532669641       -0.6665609786
 C         -7.7952629385       -0.1301938128       -0.9288888584
 C         -8.3188194714       -1.2595972333       -0.3175094282
 C         -7.5477245179       -2.0091372185        0.5585106474
 C         -6.2414089130       -1.6310109341        0.8259634914
 H         -5.6075787408       -2.1756729978        1.5064207671
 H         -7.9593290863       -2.8843303935        1.0347513873
 H         -9.3354620446       -1.5556002827       -0.5224802237
 H         -8.3983818517        0.4526851398       -1.6062112967
 H         -6.0442204908        1.1296690133       -1.1093979308
 H         -3.8389592121       -1.2469775668       -1.3863840599
 H         -2.2426164388       -1.1403758055       -3.1024597566
 H         -0.0265082597       -0.3230962299       -3.8129090322
 H          1.4523479855        0.8202218878       -2.2041521910
 C          0.9631316429        1.3422287674        0.4349393702
 H          0.4825742291        1.2356735038        1.4178104311
 C          0.9833097472        2.8174935936        0.0746363444
 C         -0.2722111053        3.6160689530        0.2489369297
 C          0.8951092916        3.8435563909        1.1612998531
 H          1.4620186662        4.7563995867        1.0557092833
 H          0.8226052195        3.4890500384        2.1796637574
 H         -1.1425112377        3.1077211397        0.6397850581
 H         -0.5046761415        4.3729606878       -0.4846371581
 H          1.6090116479        3.0412604735       -0.7791713141
 O          3.3357317148        1.7159926930       -1.3312377003
