  62
        -98.94868607
 C         -1.6701656049       -1.2310978393       -0.3134493335
 C         -0.6094354994       -1.6694636000       -1.1398485611
 C          0.3074538060       -2.6449717981       -0.5424419891
 C          0.1266526295       -3.0342398012        0.7326914228
 C          0.9517885159       -4.0524681982        1.4724786301
 C          2.2478578213       -3.4907325018        2.0712099347
 C          3.3572204036       -3.2042227971        1.0590994816
 H          4.2771833773       -3.0550878572        1.6281287224
 H          3.5045214845       -4.0777266944        0.4227419371
 C          3.1125519170       -1.9623878939        0.1906395739
 H          2.3595982087       -1.3263527319        0.6645857122
 H          4.0342370534       -1.3783219425        0.1377332048
 C          2.6891762386       -2.2579554957       -1.2484465550
 H          2.4796434723       -1.3053752201       -1.7423463978
 H          3.5132842069       -2.7409271371       -1.7786784779
 C          1.4461562669       -3.1461577284       -1.3792141080
 H          1.6891758308       -4.1738549282       -1.1089560382
 H          1.1213944264       -3.1248930325       -2.4226368180
 H          2.0114598069       -2.5739005619        2.6175488541
 H          2.6197374420       -4.2234161195        2.7916591551
 H          0.3270116078       -4.4224904821        2.2883999815
 H          1.1869492414       -4.8858312441        0.8090992027
 O         -0.8797930798       -2.5548860306        1.5103303646
 C         -1.7854925623       -1.6277055192        1.0186059178
 O         -2.6410184365       -1.2571072344        1.8464474577
 O         -0.4449297625       -1.2727657019       -2.3258044267
 C         -2.6636730866       -0.2223022248       -0.8621036208
 C         -2.5633265911        1.0540143254       -0.0647894255
 C         -3.6574862675        1.7456323284        0.4362762251
 C         -3.4706824989        2.8857419729        1.1998534410
 C         -2.2005343852        3.3513723976        1.4839446278
 C         -1.0988445090        2.6749928400        0.9696641934
 C         -1.2900341517        1.5527283931        0.1824292655
 H         -0.4339692706        1.0212475901       -0.2072805908
 N          0.2039497823        3.1353860466        1.2069058487
 S          1.5252277337        2.1161388885        1.2192339337
 O          1.1859095840        0.7732026598        1.6324370580
 O          2.5021346040        2.7952640277        2.0458736430
 C          2.1279774911        2.1059441809       -0.4589608721
 C          3.3412866628        1.4796485287       -0.6677745572
 C          3.8649005891        1.4268274329       -1.9489219902
 C          3.1701842429        2.0067832807       -2.9991932252
 C          1.9611304202        2.6441177343       -2.7723443481
 C          1.4309713357        2.6982957240       -1.4917284506
 H          0.4900164268        3.1857575208       -1.2970877612
 H          1.4227634765        3.0974752817       -3.5891349532
 H          3.5736569262        1.9620657543       -3.9984409199
 H          4.8075922239        0.9334114313       -2.1231800606
 H          3.8482543850        1.0483818907        0.1803263599
 H          0.2911750622        3.8827062801        1.8784316258
 H         -2.0570688210        4.2261021087        2.0995815368
 H         -4.3279700597        3.4108301953        1.5930871622
 H         -4.6546425284        1.3850871745        0.2446508046
 H         -2.3317307374       -0.0152161622       -1.8906046590
 C         -4.0589950058       -0.8071881306       -0.9053253759
 C         -5.0487797072       -0.3249892168       -1.9225149627
 C         -4.4402624883       -1.6875342602       -2.0564119417
 H         -5.0566773305       -2.5521370617       -1.8613236840
 H         -3.6986014798       -1.8453948362       -2.8257114287
 H         -6.0878357635       -0.2554347100       -1.6380117922
 H         -4.7257837211        0.4427517915       -2.6089660066
 H         -4.4238581996       -1.0828861182        0.0778016784
