  62
        -98.93572082
 C          1.7296908605        0.9348635395        0.3384104502
 C          2.0210147904       -0.4287582004        0.0764549796
 C          3.3569428904       -0.7441089903       -0.4568509303
 C          4.2307962306        0.2568642597       -0.6704564397
 C          5.6345120707        0.2559724297       -1.2391730295
 C          6.4098648305       -1.0485717003       -1.4016142800
 C          6.8128900602       -1.7182080810       -0.0882043102
 H          7.2640127901       -2.6851742209       -0.3212804506
 H          7.5765497502       -1.1029772913        0.3944787802
 C          5.6846442900       -1.9253048513        0.9191198195
 H          5.2874134401       -0.9566723313        1.2293233899
 H          6.1131095298       -2.3964153217        1.8080244894
 C          4.5315494300       -2.8038601109        0.4382626790
 H          3.8843659998       -2.9959807712        1.2981375388
 H          4.9208314999       -3.7632003408        0.0918866986
 C          3.6560863902       -2.1998063203       -0.6732700909
 H          4.0977185904       -2.3585496599       -1.6542058809
 H          2.6911053802       -2.7145903401       -0.6605503913
 H          7.3284227306       -0.7998944002       -1.9401447397
 H          5.8553711105       -1.7401256400       -2.0289936103
 H          6.2120096807        0.9396393494       -0.6086882991
 H          5.5555845409        0.7368306002       -2.2204922093
 O          3.9040357207        1.5554539496       -0.4132470392
 C          2.6686508007        1.9336403895        0.0882113408
 O          2.5628349308        3.1651147595        0.2544163813
 O          1.1903416602       -1.3540819504        0.2803518891
 C          0.3496343105        1.2362000695        0.8932492601
 C         -0.6144544693        1.6733267801       -0.1839060398
 C         -0.3826579790        2.8057370504       -0.9573358293
 C         -1.3019903888        3.1963336210       -1.9134456793
 C         -2.4752051189        2.4855654512       -2.0986426498
 C         -2.7172185292        1.3544335409       -1.3288336503
 C         -1.7788840994        0.9487024204       -0.3903590203
 H         -1.9631171496        0.0583065201        0.1906819492
 N         -3.8914816592        0.6068909411       -1.4920658508
 S         -4.6636829895       -0.0399870993       -0.1538685412
 O         -6.0363626495       -0.2128233390       -0.5788905015
 O         -4.4583708596        0.7725950101        1.0218459492
 C         -3.9201911498       -1.6425183595        0.0591586882
 C         -3.9272948398       -2.5146856191       -1.0111687722
 C         -3.3641722900       -3.7705463692       -0.8539895327
 C         -2.8082469702       -4.1317755598        0.3640054572
 C         -2.8134408702       -3.2466646203        1.4305539776
 C         -3.3753579200       -1.9890693002        1.2792611781
 H         -3.3961814201       -1.2686202905        2.0823606884
 H         -2.3781373604       -3.5279716608        2.3761264776
 H         -2.3667231103       -5.1084974800        0.4841038769
 H         -3.3575246099       -4.4630969788       -1.6803080230
 H         -4.3717297496       -2.1991337686       -1.9403511422
 H         -4.5483302191        0.9855253415       -2.1586304808
 H         -3.1985187587        2.8030000116       -2.8345576497
 H         -1.1101451586        4.0740123712       -2.5123911788
 H          0.5230578410        3.3718243602       -0.8030014789
 H         -0.0157135097        0.2777510094        1.2867593396
 C          0.3441412404        2.2482060390        2.0240758406
 C         -0.8881669597        2.3732850288        2.8679809404
 C          0.3566119701        1.7679380384        3.4426372904
 H          0.9151016601        2.3337774479        4.1732577307
 H          0.3749081700        0.7008182883        3.6097642299
 H         -1.1825750296        3.3563603287        3.2026656808
 H         -1.7226508897        1.7259050990        2.6396452500
 H          0.8912655906        3.1533060690        1.7951003111
