  62
        -98.93839931
 C         -1.3162879908       -1.6859248040       -0.6234864186
 C         -2.5300568593       -1.6502613844        0.1065155871
 C         -3.5148300320       -0.6264255692       -0.2776701185
 C         -3.2219680473        0.2056086450       -1.2918585419
 C         -4.0264240216        1.3805908356       -1.7733489969
 C         -3.5473867556        2.6680560156       -1.0796215297
 C         -4.2318358915        2.9709858889        0.2525779180
 H         -3.7207874259        3.8330253548        0.6879015440
 H         -5.2688187610        3.2604364863        0.0672536321
 C         -4.2148739207        1.8272260227        1.2703483879
 H         -3.2268895025        1.3614359321        1.2772878248
 H         -4.3724746168        2.2591937395        2.2608488206
 C         -5.2986035029        0.7695074737        1.0118274343
 H         -5.8518201797        0.5885084973        1.9356697690
 H         -6.0161179194        1.1665911790        0.2937235989
 C         -4.7850703035       -0.5954024375        0.5274071852
 H         -5.5755749791       -1.0895451720       -0.0471665322
 H         -4.5786364196       -1.2340664514        1.3919500968
 H         -2.4666737205        2.5897363801       -0.9249803895
 H         -3.7198097799        3.5140763040       -1.7486263842
 H         -5.0880746880        1.2175816675       -1.6121528536
 H         -3.8404664759        1.4719927851       -2.8454785437
 O         -2.0670244899        0.1115640618       -1.9994741677
 C         -1.0699913355       -0.7961708852       -1.6700539708
 O         -0.0601531544       -0.7038785029       -2.3914655013
 O         -2.7743363377       -2.4434958676        1.0572035681
 C         -0.2683583022       -2.6681163235       -0.1310704958
 C          0.5072827495       -2.0604513321        1.0140646191
 C          0.9015617767       -2.8232515232        2.1072853197
 C          1.5993255938       -2.2413317111        3.1513497035
 C          1.9031749669       -0.8921310771        3.1344005450
 C          1.4960023963       -0.1150211301        2.0539392048
 C          0.8210671304       -0.7096587668        0.9985120058
 H          0.5011062131       -0.0988610234        0.1712026112
 N          1.7266841843        1.2623162108        2.0423359574
 S          1.7119537174        2.2212462310        0.6790630363
 O          2.1271033389        3.5160029228        1.1771982700
 O          0.4228460399        2.1766315191        0.0367855755
 C          3.0040183511        1.5694294844       -0.3624320572
 C          4.3040482531        1.8251438406        0.0349263797
 C          5.3513050086        1.3282373444       -0.7212583582
 C          5.0833550664        0.5856972132       -1.8622034613
 C          3.7757665862        0.3424565802       -2.2487277794
 C          2.7200119613        0.8338419060       -1.4937871760
 H          1.6977924427        0.6395816509       -1.7804986321
 H          3.5580823999       -0.2320476195       -3.1347084259
 H          5.8967061935        0.1969563467       -2.4543457436
 H          6.3691151263        1.5206054607       -0.4224921049
 H          4.4675700647        2.4244588898        0.9157204557
 H          2.3116504739        1.6253126542        2.7781075313
 H          2.4302174403       -0.4359560317        3.9579885806
 H          1.9013050340       -2.8431293840        3.9949553667
 H          0.6371273228       -3.8694973451        2.1486146673
 H         -0.8379108861       -3.5184259011        0.2781500515
 C          0.6350029758       -3.2070800119       -1.2297665581
 C          2.0547440961       -2.7683584744       -1.4050965158
 C          1.7574590315       -4.1481150468       -0.9050497395
 H          1.9299810935       -4.9853412257       -1.5641209755
 H          1.9563834972       -4.3546776142        0.1348964406
 H          2.4176771835       -2.6437968927       -2.4130618727
 H          2.4502248966       -2.0433732926       -0.7100367161
 H          0.0803884869       -3.4094844079       -2.1400442045
