  62
        -98.94080678
 C         -2.6559945520       -0.1469736475        0.3339616592
 C         -2.6697928955       -1.1572857637       -0.6616260352
 C         -2.0968778824       -2.4530035912       -0.2896032832
 C         -1.5790302937       -2.6178288579        0.9404233839
 C         -0.9177673349       -3.8637066176        1.4640525465
 C          0.5539854530       -3.9904365500        1.0462062784
 C          0.7834920499       -4.4019446899       -0.4091817794
 H          0.1682022799       -5.2719294593       -0.6428093840
 H          1.8282786664       -4.7080901836       -0.4922827437
 C          0.5174788905       -3.2869496599       -1.4300751210
 H          1.3242382880       -3.2732270863       -2.1674229682
 H          0.5312731467       -2.3190231666       -0.9238973016
 C         -0.7918819485       -3.4275748551       -2.2067256551
 H         -0.7458151599       -4.3123977024       -2.8467736670
 H         -0.9016924635       -2.5497753336       -2.8486915600
 C         -2.0464748438       -3.5302138764       -1.3314614870
 H         -2.0963063465       -4.5115955648       -0.8595762055
 H         -2.9211633330       -3.4054772463       -1.9752358879
 H          1.0142157345       -4.7411955605        1.6934139821
 H          1.0497969480       -3.0340119954        1.2337608456
 H         -1.4716672433       -4.7440241254        1.1355248146
 H         -0.9658310019       -3.8072555025        2.5537709044
 O         -1.6180236209       -1.6417972497        1.8832861784
 C         -2.1263577797       -0.3773640293        1.6044404068
 O         -2.0679016489        0.4035005161        2.5734183831
 O         -3.1497901312       -0.9791842039       -1.8147529916
 C         -3.1247048305        1.2289037245       -0.1093543212
 C         -1.9726022856        1.9074303894       -0.8102203887
 C         -2.1301607340        2.5165541993       -2.0491053355
 C         -1.0390623916        3.0511998172       -2.7126131247
 C          0.2302262980        2.9567911904       -2.1717371546
 C          0.3961328460        2.3551910167       -0.9284954414
 C         -0.7061925689        1.8689319972       -0.2438218064
 H         -0.5603041629        1.4178009224        0.7266481975
 N          1.6640379031        2.2208642632       -0.3437059575
 S          1.9628749270        0.8213169559        0.5629042802
 O          1.2382281103       -0.2983253553        0.0116088931
 O          1.7381574685        1.1253778892        1.9541507641
 C          3.7116914749        0.6120922701        0.2793912128
 C          4.6002628103        1.4162837722        0.9685346587
 C          5.9574499468        1.2740491638        0.7271574807
 C          6.4010176756        0.3357853812       -0.1933939654
 C          5.4976292670       -0.4656516202       -0.8749095955
 C          4.1384681456       -0.3272033544       -0.6397310198
 H          3.3979671211       -0.9314194744       -1.1393396818
 H          5.8447155410       -1.1972361669       -1.5865672585
 H          7.4578694234        0.2260813606       -0.3781687126
 H          6.6628456186        1.8930518434        1.2575568226
 H          4.2086035718        2.1223976601        1.6822270150
 H          2.4225283338        2.4382877872       -0.9752231324
 H          1.0867792694        3.3390321385       -2.7057840961
 H         -1.1744575894        3.5210243749       -3.6749337040
 H         -3.1097268177        2.5445649078       -2.5032417287
 H         -3.9030065438        1.0403122448       -0.8670789411
 C         -3.7502405977        2.0746632415        0.9863420243
 C         -3.0537206264        3.2379081527        1.6192819729
 C         -4.1993128629        3.4742365961        0.6840352281
 H         -5.1386256084        3.8145489231        1.0922664915
 H         -3.9695841359        3.8693984706       -0.2938965687
 H         -3.1987425182        3.3896674724        2.6778774150
 H         -2.0562680530        3.4771024757        1.2838286144
 H         -4.3868789128        1.4858959844        1.6383975423
