  62
        -98.93279479
 C          1.7588629488        1.0552250997        0.5226500006
 C          2.0874126090       -0.2525955303        0.9564032104
 C          3.5051558491       -0.6570832200        0.8942488206
 C          4.4104580090        0.2370859103        0.4561420610
 C          5.8946148991        0.0571566906        0.2749926313
 C          6.2448170895       -0.7672427191       -0.9734734888
 C          5.3991415698       -2.0224259992       -1.1705536793
 H          4.3465454698       -1.7402437294       -1.2356773894
 H          5.6758743301       -2.4616623989       -2.1327141993
 C          5.5710540298       -3.0975078394       -0.0999742695
 H          4.9948816300       -3.9690288594       -0.4216235298
 H          6.6215951298       -3.3930497392       -0.0540154793
 C          5.1088811394       -2.7196167498        1.3093527205
 H          5.8414049491       -2.0914617898        1.8091712308
 H          5.0464583494       -3.6449372299        1.8895411603
 C          3.7298943192       -2.0705303701        1.3749284003
 H          3.0113511795       -2.6944755501        0.8303843500
 H          3.3870526190       -2.0836757404        2.4166932203
 H          6.1041532496       -0.1302521389       -1.8501186187
 H          7.2999523696       -1.0410607489       -0.9210331886
 H          6.3184190389        1.0573558507        0.1608590516
 H          6.3291404089       -0.3869359295        1.1655896113
 O          4.0536996388        1.4920919403        0.0657605612
 C          2.7414776388        1.9387501500        0.0751323810
 O          2.6101089186        3.1093817401       -0.3247465388
 H         -1.9885185609        0.0987228791        0.1474409195
 C         -1.5886634808        0.5101769394       -0.7657612203
 C         -0.4005080709        1.2258813596       -0.7294726999
 C          0.1140778793        1.7302964900       -1.9199730796
 C         -0.5528654004        1.5200211501       -3.1130964198
 C         -1.7340884103        0.7996943999       -3.1451747503
 C         -2.2553916905        0.2870130495       -1.9630475005
 N         -3.4666678703       -0.4169276107       -1.9607161409
 S         -3.7004870003       -1.7263726010       -0.9416435213
 O         -2.4842817102       -2.4802568608       -0.7524824812
 O         -4.8094594200       -2.4412270411       -1.5370616617
 C         -4.2423375008       -0.9918629314        0.5861837987
 C         -3.5541643210       -1.2446466116        1.7562849989
 C         -3.9970109214       -0.6593115619        2.9324437989
 C         -5.1140921616        0.1617558879        2.9173921688
 C         -5.7964949213        0.4017659880        1.7340024987
 C         -5.3593085910       -0.1800594816        0.5551048987
 H         -5.8631141508       -0.0224866215       -0.3838477014
 H         -6.6643527715        1.0412279879        1.7274039086
 H         -5.4527927119        0.6173534876        3.8344768688
 H         -3.4639662116       -0.8438435020        3.8515290190
 H         -2.6815220209       -1.8794353214        1.7234717789
 H         -3.8686195801       -0.5749988606       -2.8732034211
 H         -2.2489597700        0.6330324500       -4.0792187004
 H         -0.1451777403        1.9176626404       -4.0304851597
 H          1.0359771691        2.2912438401       -1.8986220893
 C          0.2946220987        1.4488152694        0.5897311003
 H         -0.1459187013        0.7423181992        1.3115303601
 C          0.0746382983        2.8507129493        1.1429502406
 C         -0.4084390817        4.0038283994        0.3212698007
 C         -1.3209148918        3.3706739890        1.3257681004
 H         -1.5575037221        3.9126139687        2.2285749505
 H         -2.1282421816        2.7598186889        0.9497726601
 H          0.0104022581        4.9754969694        0.5337241911
 H         -0.6066036014        3.8380639696       -0.7254752093
 H          0.7892383181        3.0880066092        1.9248465408
 O          1.2245418390       -1.0635510006        1.3927951400
