  62
        -98.93238653
 C         -2.5396233112       -1.0415242863        0.4902076913
 C         -2.7211197744        0.2138888243        1.1198643143
 C         -3.8972505146        1.0105264132        0.7226657317
 C         -4.7212599764        0.5152276239       -0.2193435622
 C         -5.9586948488        1.1412203443       -0.8067399893
 C         -5.6411457859        2.2601804266       -1.8102954226
 C         -4.5679752399        3.2439635434       -1.3527393499
 H         -4.3705931145        3.9285764369       -2.1818962008
 H         -3.6428451084        2.6987447391       -1.1568697261
 C         -4.9339866867        4.0828320298       -0.1304534712
 H         -5.8527815108        4.6358172668       -0.3376722272
 H         -4.1328262329        4.8125183760        0.0119113687
 C         -5.1119313861        3.3145762019        1.1815950000
 H         -6.0816968142        2.8260544444        1.2251929459
 H         -5.0986611549        4.0489975271        1.9921957706
 C         -4.0053842102        2.3094666728        1.4848626657
 H         -4.0735678578        2.0231400513        2.5412603724
 H         -3.0324001383        2.8037806711        1.3841496269
 H         -6.5646333392        2.7995335547       -2.0280754373
 H         -5.2948065894        1.7957058914       -2.7368929007
 H         -6.6057341262        1.5057078809       -0.0144274802
 H         -6.4913620300        0.3449080611       -1.3314047943
 O         -4.4934036902       -0.6871236433       -0.8184965198
 C         -3.4156514065       -1.4921613050       -0.4969530051
 O         -3.3722183182       -2.5537216872       -1.1475949824
 O         -1.9290396643        0.6603766191        1.9944312206
 C         -1.3367944840       -1.8657050548        0.9183908008
 C         -0.2306330506       -1.7254234062       -0.1002541765
 C         -0.2123852163       -2.4615437986       -1.2796030432
 C          0.8134119462       -2.2915110372       -2.1921961770
 C          1.8369366506       -1.3920639119       -1.9519149716
 C          1.8263351692       -0.6491228811       -0.7789042961
 C          0.7981347691       -0.8240980382        0.1383914860
 H          0.7820537932       -0.2372263881        1.0475160878
 N          2.8531816501        0.2818795989       -0.5342539374
 S          4.4335990080       -0.2275459811       -0.8542891991
 O          4.6901882385       -0.0564393020       -2.2624335879
 O          4.6387224931       -1.5600608817       -0.3323926838
 C          5.3798395024        0.9588826225        0.0792650477
 C          5.8319392161        0.6204367041        1.3405696510
 C          6.5525929134        1.5552011164        2.0671625581
 C          6.8046104255        2.8060988119        1.5241493500
 C          6.3434500379        3.1311768689        0.2569880910
 C          5.6232258684        2.2010605068       -0.4754252759
 H          5.2535793726        2.4057148923       -1.4666136516
 H          6.5436573824        4.1040707885       -0.1620747611
 H          7.3666446426        3.5311580819        2.0912951110
 H          6.9148403929        1.3045913268        3.0512393647
 H          5.6209844474       -0.3670835278        1.7188643760
 H          2.7819406159        0.6903131207        0.3879356761
 H          2.6451399504       -1.2600618736       -2.6533586403
 H          0.8170926505       -2.8683690220       -3.1051181862
 H         -1.0182113868       -3.1470265386       -1.4880369441
 H         -0.9902140946       -1.3976273692        1.8497997594
 C         -1.6763289414       -3.3131516226        1.2088278129
 C         -0.7039296597       -4.1392386131        1.9945637810
 C         -2.0030851821       -3.7204138045        2.6129829038
 H         -2.7667023978       -4.4679433800        2.7669046230
 H         -1.9826638986       -2.9545288440        3.3746223576
 H         -0.5718639342       -5.1754597701        1.7239766103
 H          0.2002326488       -3.6561987789        2.3337562796
 H         -2.2249624814       -3.7999404600        0.4136504346
