  62
        -98.94454151
 C         -1.3742003264       -1.4648713341        0.4248191479
 C         -1.7192424221       -0.4358198044        1.3374785453
 C         -2.8271890337        0.4430960804        0.9463425040
 C         -3.4325445720        0.2469515716       -0.2381886390
 C         -4.5578834765        1.0801519987       -0.7776207142
 C         -4.0390339644        2.2255265565       -1.6570185711
 C         -2.9200479999        3.0485597269       -1.0174073969
 H         -2.0151035190        2.4404261833       -0.9358243798
 H         -2.6832512482        3.8627841482       -1.7067027716
 C         -3.2642376093        3.6336346467        0.3594706219
 H         -4.3463800719        3.6497075792        0.4977171801
 H         -2.9158890271        4.6682036328        0.3914283026
 C         -2.6084256266        2.9089160598        1.5365221147
 H         -1.5431891030        2.7787471940        1.3246073839
 H         -2.6931127065        3.5472359036        2.4204010904
 C         -3.2074671230        1.5426704040        1.8965667199
 H         -2.8091904488        1.2495096391        2.8723946719
 H         -4.2931179090        1.6271070768        1.9793260723
 H         -3.6584352206        1.8026460585       -2.5897775559
 H         -4.8790951097        2.8802193257       -1.8981585344
 H         -5.1363565208        1.4795514183        0.0533097329
 H         -5.2013482039        0.4368299745       -1.3808180203
 O         -3.0549356311       -0.7253161406       -1.1050836452
 C         -1.9840195268       -1.5662400244       -0.8269007367
 O         -1.6982891667       -2.3374522597       -1.7613673329
 O         -1.1160485749       -0.2540716531        2.4299505379
 C         -0.1711091401       -2.3253736027        0.7694496450
 C          0.8797085737       -2.1728185501       -0.3031477075
 C          1.6027484287       -3.2182448815       -0.8606873649
 C          2.5662088764       -2.9609947805       -1.8223924013
 C          2.8431011801       -1.6696611495       -2.2334311086
 C          2.1207417520       -0.6164058924       -1.6824289119
 C          1.1541229463       -0.8802250130       -0.7290255383
 H          0.5759283050       -0.0618897580       -0.3309239708
 N          2.3443541226        0.7121414491       -2.0681796329
 S          2.0720032820        1.9599217362       -0.9916851639
 O          0.6588247318        2.1685608816       -0.7996458294
 O          2.8016666112        3.0755281919       -1.5565437232
 C          2.8572937507        1.4420364022        0.5248070190
 C          2.1134553493        1.1374600654        1.6458681698
 C          2.7690398579        0.6975631687        2.7856052055
 C          4.1489524393        0.5722378157        2.7866125064
 C          4.8845793398        0.8922937274        1.6551004710
 C          4.2347227144        1.3288708710        0.5130959280
 H          4.7719799840        1.5978000749       -0.3818279467
 H          5.9585897532        0.7995069216        1.6598646418
 H          4.6525623051        0.2255606478        3.6751248189
 H          2.1876489559        0.4490924065        3.6593050310
 H          1.0387490052        1.2336250288        1.6245120539
 H          3.1472416052        0.8705475294       -2.6573744291
 H          3.5956126776       -1.4768751479       -2.9823753901
 H          3.1153326114       -3.7824311589       -2.2570968312
 H          1.4009642398       -4.2333664925       -0.5607456723
 H          0.2335696013       -1.8510878144        1.6810009297
 C         -0.4726408774       -3.7679139071        1.1438950479
 C         -1.8493502491       -4.1954339751        1.5544670422
 C         -1.2638402401       -4.6905618102        0.2676504535
 H         -0.9594027165       -5.7256719419        0.2107176369
 H         -1.6467659513       -4.2919839610       -0.6578017091
 H         -1.9497644882       -4.8856759963        2.3788229003
 H         -2.6378838501       -3.4581539457        1.5016461816
 H          0.3463655752       -4.2178285548        1.6970183481
