  62
        -98.94180978
 C         -2.7690318443       -0.4150626359       -0.2982972048
 C         -2.0317682604        0.4470374209       -1.1464128029
 C         -2.1443647081        1.8847698939       -0.8598039982
 C         -2.9456233783        2.3057279489        0.1340100280
 C         -3.1189119795        3.7351766218        0.5561346179
 C         -2.1370287041        4.1129860573        1.6735749382
 C         -0.6863144219        3.7220856379        1.3887727106
 H         -0.0830184842        4.0832383398        2.2250267237
 H         -0.5936882629        2.6326689087        1.3838586682
 C         -0.1202433684        4.2778523544        0.0749066723
 H         -0.7284109093        5.1163518113       -0.2678550415
 H          0.8851709109        4.6588411040        0.2655482985
 C          0.0012928620        3.2414445305       -1.0440027924
 H          0.6365071423        3.6613034437       -1.8291231836
 H          0.4989359002        2.3499308110       -0.6510381871
 C         -1.3197852103        2.8179844376       -1.7005002538
 H         -1.8955322906        3.7041802968       -1.9753670860
 H         -1.0795209452        2.2665278691       -2.6140811229
 H         -2.1981864817        5.1910449628        1.8346079839
 H         -2.4493847153        3.6134323852        2.5936293468
 H         -2.9711264953        4.3828454277       -0.3057936662
 H         -4.1385387128        3.8617742051        0.9244128415
 O         -3.6743443996        1.4544665907        0.9001778176
 C         -3.5763319693        0.0858464491        0.7285056617
 O         -4.2625362577       -0.5778867116        1.5319900501
 O         -1.3089421303        0.0639915590       -2.1063012096
 C         -2.6924127680       -1.9351069075       -0.3766797995
 C         -1.4231606586       -2.3779059627        0.3114604413
 C         -1.4561529933       -3.0593042920        1.5223876985
 C         -0.2838960476       -3.3619756020        2.1945467352
 C          0.9431887880       -2.9748030215        1.6846826597
 C          0.9826316551       -2.2973601925        0.4743673070
 C         -0.1880280359       -2.0254429732       -0.2133780265
 H         -0.1443232900       -1.4789096923       -1.1436574306
 N          2.2267436014       -1.8263087207       -0.0269961917
 S          2.7137831807       -0.4483556293        0.8369159613
 O          3.0716499340       -0.8664081378        2.1690764890
 O          1.7042317271        0.5841264923        0.7456505644
 C          4.1746292037        0.0267229243       -0.0665153167
 C          4.0771823450        0.9947119028       -1.0472318192
 C          5.2096688064        1.3282907778       -1.7736635896
 C          6.4112081889        0.6877463185       -1.5111007625
 C          6.4922496003       -0.2832258260       -0.5238649966
 C          5.3642545551       -0.6205541198        0.2067701311
 H          5.3794094092       -1.3624710748        0.9876489915
 H          7.4287462627       -0.7777109480       -0.3223811271
 H          7.2902565197        0.9488887267       -2.0788968406
 H          5.1486451420        2.0837512327       -2.5404709903
 H          3.1236045171        1.4710603428       -1.2139185977
 H          2.1196421486       -1.5417632270       -0.9945652748
 H          1.8600883944       -3.1609257127        2.2195224255
 H         -0.3278790356       -3.8878287666        3.1364745681
 H         -2.4119630096       -3.3246615140        1.9512531513
 H         -3.5427669301       -2.3083216753        0.2091890721
 C         -2.8028104950       -2.4808172224       -1.7856734085
 C         -3.2051163997       -3.9111658439       -1.9771391382
 C         -4.1557743363       -2.8101454100       -2.3374678929
 H         -4.3474756388       -2.6115913139       -3.3811643506
 H         -5.0101969939       -2.6430436322       -1.6976040049
 H         -2.7431297668       -4.4731410241       -2.7741128899
 H         -3.4165065740       -4.4932286500       -1.0928473894
 H         -2.0776726023       -2.0636730496       -2.4710541405
