  62
        -98.93736542
 C         -2.2841899629       -0.4879397737       -0.2750851115
 C         -3.5292441503       -0.9537551475       -0.7705202289
 C         -4.7107575071       -0.6464708393        0.0455008239
 C         -4.5492487958       -0.0015419777        1.2148798492
 C         -5.6676476205        0.4300754439        2.1176161650
 C         -6.1386733184        1.8507543998        1.7757601794
 C         -6.4094823932        2.0715448096        0.2874237620
 H         -6.7631010041        3.0982091141        0.1700826205
 H         -5.4682491654        1.9928460242       -0.2618021727
 C         -7.4343760284        1.1047600799       -0.3221692401
 H         -8.1262615674        1.6754382877       -0.9451122467
 H         -8.0207237421        0.6386839142        0.4704436616
 C         -6.8295599107        0.0162722474       -1.2108664356
 H         -6.1676781167        0.4731934841       -1.9512078130
 H         -7.6433427703       -0.4689360596       -1.7562328047
 C         -6.0492413972       -1.0834375022       -0.4797753243
 H         -6.6619138467       -1.4972653895        0.3235603891
 H         -5.8419881086       -1.8798706819       -1.2005332622
 H         -7.0446946100        2.0607163019        2.3470222488
 H         -5.3665577898        2.5564568161        2.0909913912
 H         -6.4947088734       -0.2709037743        2.0231690356
 H         -5.3043693886        0.4146190831        3.1464598560
 O         -3.3347368125        0.3724060020        1.6894622777
 C         -2.1710474772        0.1479897547        0.9622206734
 O         -1.1403492141        0.5505426319        1.5319140914
 O         -3.6452829651       -1.6011309289       -1.8454444942
 C         -1.0515869255       -0.7613323548       -1.1170516838
 C          0.0671953205       -1.3088889978       -0.2684162729
 C         -0.1100810470       -2.5398027305        0.3592029821
 C          0.8888419527       -3.0848516275        1.1413564358
 C          2.0948370212       -2.4242955452        1.2986992408
 C          2.2787196040       -1.1925958269        0.6831445890
 C          1.2677671348       -0.6415800321       -0.0921214261
 H          1.4324523933        0.3243104511       -0.5395644851
 N          3.4795974205       -0.4831137535        0.8419664999
 S          4.0573707570        0.4148821414       -0.4637262428
 O          3.4552492365        1.7240404955       -0.4464009744
 O          3.9056424060       -0.3401344353       -1.6878945494
 C          5.7828713972        0.5428942459       -0.0292261558
 C          6.6818119608       -0.3679237277       -0.5516505065
 C          8.0153967519       -0.2800693124       -0.1843193097
 C          8.4248633764        0.7095957012        0.6966712050
 C          7.5112365881        1.6170228344        1.2122591936
 C          6.1765184540        1.5355471343        0.8483029145
 H          5.4321244714        2.2227384561        1.2157781414
 H          7.8334997373        2.3868567275        1.8947235092
 H          9.4631052128        0.7762840459        0.9810741763
 H          8.7285325039       -0.9817832671       -0.5859383747
 H          6.3194346864       -1.1141658997       -1.2403027769
 H          4.2088081364       -1.0290907492        1.2795058541
 H          2.8799146836       -2.8520950095        1.9036844717
 H          0.7334916968       -4.0378221399        1.6246992260
 H         -1.0497779432       -3.0599595058        0.2288806794
 H         -1.3667678330       -1.5594899991       -1.8112133253
 C         -0.6178736508        0.4136177606       -1.9807049305
 C         -1.6165521400        1.3953907750       -2.5139150643
 C         -0.6229142510        1.8249760827       -1.4786062639
 H          0.1898289099        2.4732052758       -1.7741828568
 H         -0.9656150515        1.9958086000       -0.4699255563
 H         -1.4968507246        1.7528423994       -3.5255160707
 H         -2.6464067277        1.2726316904       -2.2112192197
 H          0.1958384436        0.1435714141       -2.6487955681
