  62
        -98.93781458
 C          1.2009223955        1.4446026538        0.5891708017
 C          2.0248742394        1.0582211337       -0.4946606815
 C          3.1140211597        0.1112744670       -0.1890802647
 C          3.2376383421       -0.3854621244        1.0549159845
 C          4.2544783237       -1.3353789297        1.6521851125
 C          5.1377550679       -2.1977103786        0.7543045133
 C          4.3898221331       -3.2530106591       -0.0598238918
 H          5.1073987205       -3.7421893988       -0.7225464749
 H          3.9990370903       -4.0101947402        0.6248510478
 C          3.2164711443       -2.7423744988       -0.8937351205
 H          2.7923327642       -3.5958504558       -1.4307937212
 H          2.4268598478       -2.3675745414       -0.2374595209
 C          3.5620011493       -1.6701993009       -1.9259162405
 H          2.6726002357       -1.5162932279       -2.5434854973
 H          4.3637842414       -2.0297849936       -2.5742120886
 C          3.9679375948       -0.3010822173       -1.3527242203
 H          5.0214396658       -0.2789537217       -1.0843747259
 H          3.8094411577        0.4487759348       -2.1332746617
 H          5.7387910712       -1.5715029262        0.1015654867
 H          5.8314892330       -2.7240091613        1.4157480880
 H          4.9026085951       -0.7215642148        2.2879739860
 H          3.6873885651       -1.9863394790        2.3254399544
 O          2.3896342242       -0.0180426944        2.0598609668
 C          1.3450379309        0.8637373337        1.8492138079
 O          0.6184045729        1.0420963716        2.8485361530
 H         -0.6669906686       -0.1466218609       -0.0639214016
 C         -1.0960175064        0.5022824146       -0.8117493688
 C         -0.8230631369        1.8630766827       -0.7673688007
 C         -1.3469276729        2.6745988384       -1.7643838548
 C         -2.1146522990        2.1245969591       -2.7774275541
 C         -2.3911440529        0.7699446217       -2.8110884172
 C         -1.8677490438       -0.0509435833       -1.8179744763
 N         -2.1055305907       -1.4329511153       -1.8093116786
 S         -2.1991121488       -2.2560764851       -0.3598454499
 O         -0.8890237228       -2.4240438247        0.2184516922
 O         -2.9001954347       -3.4781028707       -0.6935182153
 C         -3.2325587444       -1.2397360930        0.6814559320
 C         -4.5580106531       -1.1007917822        0.3156058082
 C         -5.3844806349       -0.2892320498        1.0743278665
 C         -4.8732522218        0.3727046315        2.1807547589
 C         -3.5434800174        0.2187011863        2.5390290268
 C         -2.7124249646       -0.5955437707        1.7849478659
 H         -1.6726916963       -0.7264990983        2.0438121757
 H         -3.1369016972        0.7304854207        3.3970221106
 H         -5.5135548732        1.0100720857        2.7698147283
 H         -6.4206595843       -0.1724549158        0.8010272523
 H         -4.9209638397       -1.6402788298       -0.5439902103
 H         -2.7747804722       -1.7644870455       -2.4873021360
 H         -2.9897094994        0.3468222754       -3.6029467044
 H         -2.5077737967        2.7638252492       -3.5533224003
 H         -1.1382279920        3.7316849831       -1.7636683068
 C          0.0033698916        2.3587398156        0.3956752964
 H         -0.6038661529        2.2132497717        1.3056813564
 C          0.3291467294        3.8435256996        0.3315136470
 C          1.6236701924        4.3785965986        0.8656516534
 C          1.3541067731        4.4023991071       -0.6074307906
 H          1.1542070190        5.3559856880       -1.0742344303
 H          1.8801619202        3.7045336017       -1.2385085316
 H          1.6073656589        5.3105486004        1.4109390987
 H          2.3429144470        3.6647055308        1.2413260168
 H         -0.5478420684        4.4574098265        0.5122877027
 O          1.8746719039        1.4769175064       -1.6712692953
