  62
        -98.93524526
 C          2.4352615260        0.8316059618        0.9915383806
 C          3.5949694598        1.0288333607        0.2015818050
 C          4.6383653700       -0.0031304564        0.3311401883
 C          4.4394395728       -1.0553990382        1.1438912001
 C          5.3927520213       -2.2016113438        1.3164423861
 C          5.0849685745       -3.3353208075        0.3283963424
 C          4.9223260770       -2.8676143259       -1.1179865657
 H          4.7407164304       -3.7553231751       -1.7279623061
 H          4.0298861480       -2.2413667073       -1.1920595871
 C          6.1287073610       -2.1005691324       -1.6773497375
 H          6.3440248576       -2.4720436584       -2.6814666486
 H          7.0089204481       -2.2963712389       -1.0639144026
 C          5.9196902323       -0.5899097114       -1.7968422225
 H          4.9872903339       -0.3908993682       -2.3312565514
 H          6.7352400644       -0.1806357570       -2.3989730699
 C          5.8929793124        0.1870659247       -0.4746399361
 H          6.7738956814       -0.0659709824        0.1186428513
 H          5.9345897787        1.2531145972       -0.7166420137
 H          5.8887748210       -4.0715487611        0.3863618356
 H          4.1559760371       -3.8209551170        0.6364819410
 H          6.4107080851       -1.8454145193        1.1708372776
 H          5.2920950875       -2.5818660462        2.3344018176
 O          3.3071187130       -1.2184022430        1.8760056496
 C          2.2840569947       -0.2896013775        1.8119291860
 O          1.3009986139       -0.5605164082        2.5323521071
 O          3.7724291100        2.0030805788       -0.5724168822
 C          1.2555627469        1.7906572779        0.9946385773
 C          0.2658081921        1.3901402378       -0.0692894398
 C          0.6601082352        1.2232417799       -1.3933351620
 C         -0.2566931466        0.8303183202       -2.3508584840
 C         -1.5787655090        0.5964752273       -2.0131154297
 C         -1.9803489768        0.7498060429       -0.6932191975
 C         -1.0566406892        1.1456094072        0.2673649309
 H         -1.3668691410        1.2471803859        1.2987816772
 N         -3.3259945572        0.5384216835       -0.3335557127
 S         -4.1030811250       -0.8396518712       -0.9288788648
 O         -3.3388086242       -2.0249656518       -0.6069940376
 O         -4.3914641573       -0.6357349040       -2.3259734769
 C         -5.6133042859       -0.7871731271        0.0139536901
 C         -5.7248353892       -1.5482208003        1.1618348911
 C         -6.8933899781       -1.4736327010        1.9037915369
 C         -7.9219743817       -0.6408205933        1.4895256661
 C         -7.7947578853        0.1168717028        0.3346241079
 C         -6.6302596644        0.0456300382       -0.4129226936
 H         -6.4897164479        0.6083150590       -1.3207899133
 H         -8.5977564925        0.7613258726        0.0153340076
 H         -8.8292860136       -0.5841031473        2.0699103758
 H         -6.9960081356       -2.0638352683        2.8001969025
 H         -4.9024369435       -2.1869634536        1.4428331285
 H         -3.4520988508        0.5890925415        0.6691554485
 H         -2.2967499916        0.2811458990       -2.7523232212
 H          0.0600951863        0.7026162124       -3.3754013774
 H          1.6908254018        1.4029408589       -1.6600705108
 H          0.7679079702        1.6384892763        1.9707686643
 C          1.6640768581        3.2553289385        0.9209737495
 C          1.3798941539        4.1419505415       -0.2501787331
 C          0.6137289194        4.3219974230        1.0234124104
 H          0.8128294563        5.1894060667        1.6341797079
 H         -0.4172108190        4.0005348378        1.0320233761
 H          2.1306087350        4.8703840313       -0.5156813056
 H          0.8643286487        3.7215235833       -1.0989891486
 H          2.5957497674        3.4403013739        1.4451076454
