  62
        -98.93464372
 C         -1.9266453761       -0.6871521582        0.3744347907
 C         -2.6868062851        0.4830842045        0.6239315936
 C         -4.1068765483        0.4660419999        0.2296328211
 C         -4.6020773377       -0.6354261752       -0.3621223015
 C         -6.0044030429       -0.9015174599       -0.8476302800
 C         -6.6943978161        0.2357944189       -1.6162914919
 C         -7.8328623307        0.8943205536       -0.8352655539
 H         -8.3833369212        0.1168717685       -0.3014513123
 H         -8.5241268038        1.3536283084       -1.5454076977
 C         -7.4015206688        1.9762903050        0.1533274060
 H         -8.2801891438        2.2590987398        0.7379249816
 H         -7.0799826353        2.8625132561       -0.3981927967
 C         -6.2813793423        1.5755720604        1.1155516509
 H         -6.4279992699        0.5557881462        1.4697210537
 H         -6.3431771283        2.2277470912        1.9894747166
 C         -4.8736802743        1.7273486861        0.5195067487
 H         -4.2375208863        2.2828056171        1.2158978466
 H         -4.9167722528        2.3315242672       -0.3915247819
 H         -7.1145380837       -0.1872825244       -2.5301889678
 H         -5.9588840621        0.9812221536       -1.9149322663
 H         -6.6169761681       -1.1950955122        0.0084510060
 H         -5.9199164456       -1.7836287786       -1.4863251242
 O         -3.8353732816       -1.7374340609       -0.5882995916
 C         -2.4980642199       -1.8040854162       -0.2342405854
 O         -1.9641455584       -2.8923399802       -0.5235523485
 O         -2.1970107699        1.5092811142        1.1707191226
 C         -0.4748263324       -0.6608629477        0.8163572404
 C          0.4726767313       -0.3384151940       -0.3147210425
 C          0.4847484814       -1.0774334181       -1.4935167297
 C          1.3772665090       -0.7698138988       -2.5038228428
 C          2.2917656221        0.2578270178       -2.3491797173
 C          2.2955574673        0.9943474787       -1.1716914022
 C          1.3799843890        0.7010933787       -0.1698866244
 H          1.3903818992        1.2921221810        0.7333138265
 N          3.2282018915        2.0308496784       -0.9643672213
 S          4.2765071015        1.8701510993        0.3331723652
 O          3.5349322602        1.8883846302        1.5667932374
 O          5.2610916843        2.9131758916        0.1548962294
 C          5.0315533294        0.2726334490        0.0838788978
 C          6.2437014555        0.2044074702       -0.5750212430
 C          6.7950540492       -1.0388887983       -0.8391757181
 C          6.1212385210       -2.1878146047       -0.4533489117
 C          4.9032706464       -2.1023333016        0.2033972858
 C          4.3496995641       -0.8617588263        0.4781377015
 H          3.4056094110       -0.7629173318        0.9883443714
 H          4.3763958047       -2.9949792831        0.5001810860
 H          6.5468017172       -3.1561305954       -0.6644651313
 H          7.7436080597       -1.1083436884       -1.3468379746
 H          6.7323548552        1.1236361047       -0.8552930668
 H          3.7552058286        2.2728860752       -1.7922435463
 H          2.9948009899        0.4903448288       -3.1348483647
 H          1.3693029523       -1.3451791027       -3.4170053960
 H         -0.2136056301       -1.8916597229       -1.6095800747
 H         -0.4123508198        0.1633102136        1.5405167509
 C         -0.0279451593       -1.9351782932        1.5081859767
 C          1.0993144511       -1.8672793546        2.4929333085
 C         -0.3011587239       -2.1085224325        2.9703585108
 H         -0.5639427513       -3.0911700124        3.3318850339
 H         -0.8104258189       -1.3047069710        3.4822320823
 H          1.8013358276       -2.6860933636        2.5326306569
 H          1.5383421001       -0.8994289886        2.6903001057
 H         -0.1018292308       -2.8130236612        0.8795804463
