  62
        -98.94568645
 C          2.4947260633        1.1481764598       -0.0261302725
 C          3.1070646867        0.2713070989        0.9007037882
 C          3.6472358154       -0.9741490552        0.3463025423
 C          3.5367925564       -1.2202435319       -0.9720446675
 C          4.0440330194       -2.4418547775       -1.6891031300
 C          3.0777490145       -3.6336063350       -1.6411343210
 C          2.9761941055       -4.3335499010       -0.2852704411
 H          2.4397923311       -5.2704450835       -0.4477408151
 H          3.9762674938       -4.5861843567        0.0686586588
 C          2.2367996467       -3.5249642534        0.7902626953
 H          1.6532145305       -2.7325503088        0.3130092792
 H          1.5223652295       -4.1713707642        1.3061718304
 C          3.1456292278       -2.9087391646        1.8547414144
 H          3.6299797118       -3.7042225422        2.4251833027
 H          2.5229468306       -2.3324425058        2.5442904743
 C          4.2290903869       -1.9744833319        1.2992803883
 H          4.6671465989       -1.4234722610        2.1350557068
 H          5.0119910930       -2.5547281788        0.8122360194
 H          2.0856673096       -3.2929309806       -1.9489489453
 H          3.4220057039       -4.3632824964       -2.3776434718
 H          4.1829956584       -2.1540079596       -2.7332747892
 H          5.0092390405       -2.7368280068       -1.2768142400
 O          2.9430863055       -0.3511718479       -1.8315033917
 C          2.3746588762        0.8321031001       -1.3799765846
 O          1.8173709723        1.5020739376       -2.2690077049
 H          0.3483774192        0.4965895732        1.4780251547
 C         -0.2557743371        1.1964849057        0.9125790187
 C          0.3586094505        2.3000638200        0.3310098139
 C         -0.4255992270        3.1881166206       -0.3913263006
 C         -1.7838671456        2.9608469711       -0.5389682959
 C         -2.3867404343        1.8536955395        0.0290093561
 C         -1.6117754709        0.9638800771        0.7621194321
 N         -2.2182673927       -0.1753172486        1.3375605529
 S         -2.8161608593       -1.2967265581        0.2304439385
 O         -2.8354557553       -2.5591776519        0.9376077070
 O         -2.0697589661       -1.2650306466       -1.0075601768
 C         -4.4890972102       -0.7545585430       -0.0419842143
 C         -5.3517060939       -0.7438642324        1.0369285435
 C         -6.6560142395       -0.3170202485        0.8457350467
 C         -7.0732817214        0.0871496959       -0.4139355890
 C         -6.1956424478        0.0672551049       -1.4872557316
 C         -4.8887540771       -0.3572947650       -1.3026234285
 H         -4.1680063696       -0.3834804561       -2.1044513638
 H         -6.5215367513        0.3817193421       -2.4657090272
 H         -8.0886591879        0.4199998592       -0.5604260355
 H         -7.3415302888       -0.3001986748        1.6775779521
 H         -4.9866232802       -1.0714493140        1.9958867149
 H         -1.6095492170       -0.6519339221        1.9892579664
 H         -3.4424242663        1.6715113516       -0.0899305816
 H         -2.3804314728        3.6552472195       -1.1105632292
 H          0.0285420020        4.0493221893       -0.8526446099
 C          1.8540706465        2.4256110930        0.4910561109
 H          2.0814783069        2.4494886146        1.5670663873
 C          2.4472137922        3.6539121716       -0.1617623755
 C          2.3624070852        4.9801457538        0.5313110972
 C          3.6774642333        4.2690869360        0.4324453465
 H          4.4298488374        4.6619056074       -0.2346968070
 H          4.0815653924        3.8114450302        1.3236876708
 H          2.2133946177        5.8659202926       -0.0670995473
 H          1.8733604896        5.0095431234        1.4931317217
 H          2.3716168578        3.6325513311       -1.2425622980
 O          3.1902894430        0.5143596608        2.1357416456
