  62
        -98.93764330
 C         -2.3737501916       -0.2471841874        0.3016409547
 C         -1.8050603886        0.2984115035       -0.8758817692
 C         -1.7253274945        1.7646545562       -0.9240682379
 C         -2.0553534639        2.4874353716        0.1605514962
 C         -2.0114854192        3.9869459360        0.2763691526
 C         -0.6143517510        4.5401742124        0.5893661156
 C          0.3607446158        4.5461502479       -0.5885373354
 H         -0.1168031232        5.0117304933       -1.4519487134
 H          1.2041102933        5.1770414724       -0.3004117993
 C          0.8961360441        3.1605881726       -0.9761283732
 H          1.9750775398        3.2225996901       -1.1424016717
 H          0.7470959775        2.4645873758       -0.1468982564
 C          0.2772634006        2.5735740944       -2.2438339706
 H          0.5258671988        3.2078366829       -3.0981376776
 H          0.7218430023        1.5914090367       -2.4120905164
 C         -1.2466759974        2.4072584385       -2.1931085533
 H         -1.5443576725        1.7580078336       -3.0205264741
 H         -1.7309150937        3.3760650031       -2.3192180977
 H         -0.7400242665        5.5686869238        0.9367919923
 H         -0.1847392428        3.9594691963        1.4099714135
 H         -2.3872881968        4.4399941010       -0.6418477171
 H         -2.6814834459        4.2546412584        1.0964837688
 O         -2.4979323826        1.9171742183        1.3130892376
 C         -2.6650947413        0.5485911174        1.4092533110
 O         -3.0830980557        0.1595216534        2.5229200823
 O         -1.3916615816       -0.3892079501       -1.8427112174
 C         -2.5517100970       -1.7562105010        0.4657288359
 C         -1.1743492767       -2.3575636031        0.3257532806
 C         -0.6800094517       -3.1739037488       -0.6826643414
 C          0.6620498765       -3.5221425141       -0.7190494412
 C          1.5545325963       -3.0319515460        0.2153998286
 C          1.0714079978       -2.2183028173        1.2314043232
 C         -0.2763734086       -1.9260986179        1.3017827369
 H         -0.6351459141       -1.2817144653        2.0958860234
 N          1.9993578205       -1.5908382374        2.1181784488
 S          2.2493606410        0.0075632729        1.6165653642
 O          3.1994185644        0.5703410094        2.5528604650
 O          1.0005373347        0.7302829247        1.4947636592
 C          3.0045963040       -0.2198022844        0.0256709963
 C          2.1993515942       -0.3686140322       -1.0863130372
 C          2.7970392236       -0.6047313257       -2.3146473690
 C          4.1776893173       -0.6876483252       -2.4088358208
 C          4.9714203910       -0.5349708279       -1.2816868694
 C          4.3812047765       -0.3031625362       -0.0497610354
 H          4.9534005387       -0.1783696848        0.8548267619
 H          6.0448338260       -0.5995029989       -1.3583002954
 H          4.6361393629       -0.8728074060       -3.3674338171
 H          2.1740683443       -0.7274604652       -3.1863696534
 H          1.1271740027       -0.3008036250       -0.9821386082
 H          1.6639136780       -1.5608027113        3.0727460493
 H          2.6078384738       -3.2537969484        0.1642814117
 H          1.0200657040       -4.1577331158       -1.5140422055
 H         -1.3194589640       -3.5249742218       -1.4718555868
 H         -2.8432786236       -1.8898919346        1.5207203385
 C         -3.7401572591       -2.2399463449       -0.3480785504
 C         -3.7397666590       -2.5316927536       -1.8163224386
 C         -3.9273125681       -3.6471963091       -0.8309501620
 H         -4.9124832598       -4.0806585795       -0.7410448785
 H         -3.1282749862       -4.3531056129       -0.6739026094
 H         -4.5993987033       -2.2067078343       -2.3850784362
 H         -2.8123359360       -2.4274993430       -2.3538792224
 H         -4.6370765095       -1.7484825998        0.0246635612
