  62
        -98.94068851
 C          1.3518303975        1.4706780337        0.4078567026
 C          1.8826440049        0.3979807226        1.1702361066
 C          3.0018858807       -0.3342416205        0.5677774211
 C          3.4402589541        0.0095409319       -0.6564721478
 C          4.6012676461       -0.6067721906       -1.3890644379
 C          4.2523590905       -1.8915029430       -2.1522366818
 C          4.0058393823       -3.1194980461       -1.2754842114
 H          3.9903729772       -3.9873096556       -1.9377032143
 H          4.8440592688       -3.2487120655       -0.5900424282
 C          2.6907398407       -3.0778389736       -0.4846563531
 H          2.1828070620       -4.0392710986       -0.5787344487
 H          2.0277936522       -2.3238373868       -0.9153943112
 C          2.8547879024       -2.7953389003        1.0086161341
 H          1.8598009093       -2.7387367321        1.4557043977
 H          3.3959078303       -3.6179384163        1.4812434394
 C          3.5858741855       -1.4856203815        1.3293073778
 H          3.4629340753       -1.2762892967        2.3948388773
 H          4.6498346424       -1.5829718731        1.1131775108
 H          3.3723847180       -1.7017131188       -2.7710524371
 H          5.0883490684       -2.1095510410       -2.8209483709
 H          5.4106295823       -0.8080735940       -0.6864276147
 H          4.9441076657        0.1393073623       -2.1093506132
 O          2.8679667211        1.0056207486       -1.3808545100
 C          1.8013348755        1.7479319687       -0.8847193720
 O          1.3731251676        2.5976466168       -1.6861290480
 O          1.4466431098        0.0733445390        2.3066432093
 C          0.2112494331        2.2647082681        1.0199218690
 C         -0.9415578926        2.3488682045        0.0535676216
 C         -1.3003789835        3.5170275162       -0.6059321028
 C         -2.3512203286        3.5158020404       -1.5052944079
 C         -3.0767874900        2.3632447922       -1.7451067810
 C         -2.7298546681        1.1900628997       -1.0855709838
 C         -1.6629318239        1.1890494194       -0.2019363700
 H         -1.3883805449        0.2718640460        0.3008291368
 N         -3.4432446339       -0.0017486119       -1.2998154076
 S         -3.9005486610       -0.9072081303        0.0344618008
 O         -5.0647530088       -1.6458214362       -0.4084900312
 O         -4.0834496755       -0.0736101554        1.1994869926
 C         -2.5728607336       -2.0621083490        0.2960370906
 C         -2.1777013588       -2.8583931549       -0.7607874405
 C         -1.1962346237       -3.8125800895       -0.5480353218
 C         -0.6352637167       -3.9584982472        0.7118733091
 C         -1.0365020423       -3.1454117411        1.7602322166
 C         -2.0154997885       -2.1868916780        1.5526718058
 H         -2.3533919089       -1.5322765270        2.3406309478
 H         -0.5922160896       -3.2500660362        2.7373924195
 H          0.1190254176       -4.7108869599        0.8803659202
 H         -0.8746453254       -4.4423780734       -1.3618863746
 H         -2.6459179548       -2.7229225635       -1.7215591727
 H         -4.2027532078        0.0803596298       -1.9607134559
 H         -3.9029457739        2.3665928800       -2.4404064483
 H         -2.6133352838        4.4265869661       -2.0222658535
 H         -0.7381669307        4.4200535855       -0.4343732193
 H         -0.1160058296        1.6522288916        1.8768811341
 C          0.6161001879        3.6160056170        1.5896625796
 C          1.9631800761        3.8073006722        2.2186464148
 C          1.6265668910        4.5113421680        0.9401657944
 H          1.4569158737        5.5777958567        0.9741821782
 H          2.0874086137        4.1733279820        0.0258024597
 H          2.0308111573        4.3876786811        3.1264638816
 H          2.6532235052        2.9769707447        2.1771803908
 H         -0.2187456542        4.1062752180        2.0821368029
