  62
        -98.93902675
 C          2.1663678443        1.0050816367       -0.0421387622
 C          3.0555025640        0.5738311335        0.9732002788
 C          3.8364565773       -0.6507592489        0.7171462820
 C          3.6477688756       -1.3035087926       -0.4445944319
 C          4.3352971331       -2.5480944015       -0.9398169208
 C          5.7672537783       -2.2807004788       -1.4306386516
 C          6.5972051144       -1.3738212403       -0.5259158869
 H          7.5450513177       -1.1772676028       -1.0337558979
 H          6.0854737086       -0.4164752393       -0.4127519300
 C          6.9160640335       -1.9462522180        0.8531158603
 H          7.5873000148       -1.2407395479        1.3492660142
 H          7.4547131027       -2.8888837636        0.7337416893
 C          5.7164233505       -2.1849336970        1.7726545724
 H          6.1072660341       -2.3485407310        2.7811630511
 H          5.1841285736       -3.0917088810        1.4980327017
 C          4.7438728964       -1.0136933397        1.8679917790
 H          4.0780910355       -1.1818460078        2.7230805024
 H          5.3013132744       -0.1025093576        2.1130056118
 H          6.2735068151       -3.2396141759       -1.5535926063
 H          5.7035335002       -1.8043242484       -2.4120281005
 H          4.3259494246       -3.3111492422       -0.1670638425
 H          3.7424499905       -2.9193444112       -1.7789611131
 O          2.7755257295       -0.8567379459       -1.3919374942
 C          2.0138099716        0.2848435582       -1.2260736595
 O          1.2707368608        0.5354740283       -2.1968865077
 O          3.2023960390        1.1937372020        2.0605805797
 C          1.3346554708        2.2470627832        0.2398359403
 C         -0.0636323445        1.7988935291        0.5885048279
 C         -0.4246648776        1.6142855233        1.9193674142
 C         -1.6736391708        1.1205304757        2.2497764815
 C         -2.5827035805        0.7876956569        1.2608860613
 C         -2.2257434096        0.9552468317       -0.0701157125
 C         -0.9835887866        1.4774179148       -0.3990547415
 H         -0.7094555130        1.5809208350       -1.4376334553
 N         -3.1334617650        0.5813342879       -1.0827226434
 S         -3.6240484012       -1.0292188440       -1.0598512412
 O         -2.6293584713       -1.8807864411       -0.4473739503
 O         -3.9900631447       -1.3412042043       -2.4245518398
 C         -5.0995828689       -1.0012762292       -0.0617882834
 C         -5.1881193626       -1.8035166933        1.0589148740
 C         -6.3487749334       -1.7710141040        1.8164453031
 C         -7.3947068069       -0.9419048579        1.4410902585
 C         -7.2908152470       -0.1439673454        0.3112580360
 C         -6.1338116074       -0.1723271853       -0.4507962964
 H         -6.0128464709        0.4279943530       -1.3368906003
 H         -8.1063514887        0.4992232195        0.0225680804
 H         -8.2961438650       -0.9177933962        2.0327730039
 H         -6.4308276871       -2.3908989114        2.6948098696
 H         -4.3459850261       -2.4268948713        1.3143114824
 H         -2.7971847461        0.8132737343       -2.0077157041
 H         -3.5526689703        0.3885434339        1.5092661408
 H         -1.9401426878        0.9859869405        3.2870256497
 H          0.2954691667        1.8417379881        2.6923869886
 H          1.7804434584        2.6942567405        1.1381283565
 C          1.3776272973        3.2646732264       -0.8805743410
 C          0.9033338220        4.6604094278       -0.6102733803
 C          2.3636579149        4.3904746773       -0.8092635816
 H          2.8314870394        4.7224956113       -1.7239865339
 H          3.0130117098        4.4327245900        0.0528918273
 H          0.3655825632        5.1813030097       -1.3874483788
 H          0.5609861241        4.8841223481        0.3886771816
 H          1.1816175796        2.8443194585       -1.8585648671
