  62
        -98.94451271
 C          1.2160272499        1.3791859084        0.3285545811
 C          1.4033667051        0.3920639519       -0.6683273814
 C          2.3776090572       -0.6629983176       -0.3466552123
 C          2.9948691001       -0.6724791950        0.8480476338
 C          3.9757405995       -1.7049373093        1.3346010080
 C          5.4188066275       -1.4597989331        0.8734846880
 C          5.6841692364       -1.7409629986       -0.6060286252
 H          6.7672599886       -1.7395474488       -0.7434622169
 H          5.3263057272       -2.7403578404       -0.8555850929
 C          5.0644915068       -0.7160602662       -1.5664120562
 H          5.8024302305       -0.4294633913       -2.3190877258
 H          4.8032647011        0.1898055618       -1.0145220875
 C          3.8271295760       -1.2136202506       -2.3142020941
 H          3.4510884359       -0.3976812351       -2.9370063363
 H          4.1043076300       -2.0386097026       -2.9744519515
 C          2.6830618207       -1.6806132673       -1.4045850241
 H          1.7876858435       -1.8070004796       -2.0191656389
 H          2.9320760374       -2.6407982537       -0.9524950130
 H          6.0654578637       -2.1107070749        1.4662887659
 H          5.6884647938       -0.4261873020        1.1018809515
 H          3.9521147545       -1.6651380793        2.4257328934
 H          3.6567981557       -2.6974610107        1.0141266436
 O          2.7689131325        0.2800028358        1.7903421523
 C          1.9021040684        1.3306314333        1.5473750276
 O          1.8247170330        2.1512951134        2.4825262880
 H         -1.5409815795        0.9409671636       -1.1399131720
 C         -1.9217378511        1.3202854833       -0.2044631316
 C         -1.1360778610        2.1470036766        0.5889452359
 C         -1.6514560847        2.6057167557        1.7968674886
 C         -2.9279249962        2.2586847449        2.1983563946
 C         -3.7113266728        1.4435049942        1.4029662469
 C         -3.2046529819        0.9706469484        0.1970666993
 N         -4.0029578096        0.1547927925       -0.6219754923
 S         -3.3742374568       -1.2344533917       -1.3097447515
 O         -2.5309496113       -0.9054035745       -2.4271657499
 O         -4.5433690707       -2.0341282366       -1.6115565127
 C         -2.4463590447       -2.0048164622        0.0028959638
 C         -1.0724144998       -1.8951706257        0.0310316190
 C         -0.3789373162       -2.4523482316        1.0945098407
 C         -1.0684490835       -3.1055955746        2.1035928285
 C         -2.4506750436       -3.2129385048        2.0569008262
 C         -3.1490302915       -2.6541695032        0.9997764815
 H         -4.2216218000       -2.7257549324        0.9201306705
 H         -2.9821974987       -3.7266941020        2.8416166141
 H         -0.5228117676       -3.5350248232        2.9290148550
 H          0.6959061629       -2.3609253814        1.1281981461
 H         -0.5696314026       -1.3801857311       -0.7711822156
 H         -4.9210647875       -0.0299412879       -0.2431945649
 H         -4.7113667789        1.1750933840        1.7078676590
 H         -3.3152164936        2.6246812988        3.1368451029
 H         -1.0335765794        3.2300698839        2.4255802051
 C          0.2601623557        2.5529391299        0.1759327776
 H          0.6068736739        3.3050535551        0.8982552598
 C          0.2762640993        3.1837717897       -1.2012551821
 C         -0.1910936817        4.5995118789       -1.3487375101
 C          1.2640953612        4.2711650438       -1.4933186680
 H          1.7097650324        4.3113198148       -2.4759938539
 H          1.9344147678        4.5653701252       -0.6983829381
 H         -0.7488506843        4.8671582305       -2.2330343788
 H         -0.5061390544        5.1184050266       -0.4558440076
 H          0.0504020660        2.4936294926       -2.0029414760
 O          0.8004944212        0.3617376345       -1.7739685526
