  62
        -98.93943865
 C          2.6992314894        1.1736525898       -0.0890523401
 C          2.8120830995        0.0416858996       -0.9313827198
 C          4.1480702195       -0.5672541803       -1.0045510097
 C          5.1622832495       -0.0191188200       -0.3104851799
 C          6.5581796996       -0.5674347499       -0.2542030899
 C          6.7254026497       -1.5396009496        0.9220515504
 C          5.6276585598       -2.6001573596        1.0075321407
 H          5.8655245300       -3.2464825094        1.8552394309
 H          4.6763372998       -2.1125418797        1.2331569007
 C          5.4697964798       -3.4541211400       -0.2582526190
 H          6.3665384298       -3.3731409501       -0.8736446691
 H          5.3721532300       -4.5010888599        0.0363861313
 C          4.2415962397       -3.1136118203       -1.1046021190
 H          4.1067717698       -3.9088703505       -1.8425555888
 H          3.3508295098       -3.1011160202       -0.4710791290
 C          4.3055522596       -1.7857224605       -1.8698360294
 H          3.4650767295       -1.7654065808       -2.5696815793
 H          5.2329841395       -1.7352345206       -2.4438113095
 H          7.6980827998       -2.0265512995        0.8319453704
 H          6.7182666598       -0.9640330893        1.8506469102
 H          7.2501799295        0.2665574402       -0.1257316302
 H          6.7828053495       -1.0724176101       -1.1915563898
 O          5.0185075695        1.0839467902        0.4686828898
 C          3.7853453194        1.6980480601        0.6104489597
 O          3.7842636494        2.6851663403        1.3743736994
 O          1.8498594795       -0.4346809407       -1.5880438296
 C          1.3571586294        1.8639542897        0.0675242698
 C          0.3173791495        0.8857904397        0.5592583302
 C          0.6265607596        0.0517242301        1.6303509704
 C         -0.3014125002       -0.8469458499        2.1194865307
 C         -1.5632924303       -0.9339166302        1.5569347908
 C         -1.8898955304       -0.0941764605        0.5024903606
 C         -0.9534844705        0.8089270295        0.0124927303
 H         -1.2244286807        1.4525506192       -0.8105872799
 N         -3.1737233605       -0.1736455608       -0.0829122893
 S         -4.5084089304        0.2243840994        0.8744409207
 O         -4.6719143106        1.6635013494        0.9127268303
 O         -4.3939244003       -0.4373202103        2.1474047309
 C         -5.8241603604       -0.5060101410       -0.0791684690
 C         -5.9835625603       -1.8773925110       -0.0303044486
 C         -6.9864058803       -2.4624891313       -0.7861843384
 C         -7.8077619104       -1.6708325116       -1.5754519685
 C         -7.6355665006       -0.2957089216       -1.6139032089
 C         -6.6334145306        0.2954335287       -0.8603314192
 H         -6.4690297007        1.3609476687       -0.8540005995
 H         -8.2767230707        0.3171913982       -2.2268874890
 H         -8.5881440604       -2.1286671518       -2.1626644484
 H         -7.1243557302       -3.5314204213       -0.7583292081
 H         -5.3264302102       -2.4527423008        0.6005262515
 H         -3.2251879506        0.3844606490       -0.9260499194
 H         -2.2959609902       -1.6249537001        1.9385354310
 H         -0.0398597901       -1.4911433797        2.9458241408
 H          1.6116454097        0.1169650603        2.0736872403
 H          1.4955963193        2.6283523499        0.8468900496
 C          0.9806354692        2.5544338193       -1.2274336003
 C          0.1342569191        3.7910474892       -1.2101291006
 C          1.5934031190        3.8855536993       -1.5382276807
 H          1.8816332990        4.0960616391       -2.5571381408
 H          2.2601611191        4.3068474896       -0.7998359009
 H         -0.5784424110        3.9414758990       -2.0074263706
 H         -0.1954556109        4.1594859095       -0.2500919207
 H          0.8564203992        1.8570898891       -2.0483043301
