  62
        -98.94360995
 C         -1.8027673357        0.8555055802       -0.8260831820
 C         -2.0084571545        0.4048399160        0.5002003725
 C         -3.4067444450        0.3775527307        0.9538737613
 C         -4.3794385808        0.7911167561        0.1212043863
 C         -5.8466131731        0.7645659692        0.4363542244
 C         -6.4873090233       -0.5555598667       -0.0147177141
 C         -5.7225537790       -1.7996156259        0.4376320931
 H         -4.7505560817       -1.8220696782       -0.0606572805
 H         -6.2823968333       -2.6699199505        0.0881808538
 C         -5.5147755374       -1.9008155949        1.9551964407
 H         -5.7383511022       -2.9219575523        2.2712601078
 H         -6.2155703365       -1.2421913935        2.4695268258
 C         -4.0913669296       -1.5911540508        2.4227253373
 H         -3.3778831034       -2.1814956083        1.8420185475
 H         -4.0015921793       -1.9035839129        3.4665197217
 C         -3.6701106996       -0.1181221061        2.3478536350
 H         -2.7222679719       -0.0166648694        2.8841507506
 H         -4.4163894803        0.5043013683        2.8455487217
 H         -6.5357999933       -0.5617757368       -1.1061744220
 H         -7.5079657775       -0.5935469218        0.3703340398
 H         -5.9857731900        0.9008792068        1.5069608666
 H         -6.3270148876        1.5900175425       -0.0916560411
 O         -4.1382826037        1.2401964445       -1.1376557002
 C         -2.8504977962        1.2686302296       -1.6478385576
 O         -2.7706727951        1.6732305840       -2.8258984427
 H          2.0944967371        0.1561979490       -0.4754103731
 C          1.5073952827       -0.6783026985       -0.8180288809
 C          0.2316305465       -0.4733583596       -1.3173264415
 C         -0.4921078251       -1.5740072594       -1.7699358304
 C          0.0427926085       -2.8454254620       -1.7055876395
 C          1.3142879217       -3.0469196349       -1.1971620826
 C          2.0491329766       -1.9553887202       -0.7517988422
 N          3.3237905084       -2.1324184032       -0.2009829621
 S          4.5118623148       -0.9711741299       -0.3473130900
 O          4.4946659484       -0.3470181977       -1.6499815215
 O          5.7343341492       -1.6635760957        0.0020163022
 C          4.1444277387        0.2304408023        0.9142875167
 C          4.4277384840        1.5590288440        0.6657850019
 C          4.1713497661        2.4967389834        1.6535655345
 C          3.6398671755        2.0907995796        2.8677737372
 C          3.3656619005        0.7522662813        3.1032233120
 C          3.6225084259       -0.1906744329        2.1209335361
 H          3.4118368605       -1.2363830796        2.2704854224
 H          2.9474563073        0.4406829883        4.0468374428
 H          3.4359532416        2.8222121759        3.6339509296
 H          4.3835826026        3.5385801330        1.4723083011
 H          4.8301643187        1.8312146138       -0.2973188581
 H          3.6892157875       -3.0720811733       -0.2331087765
 H          1.7316511140       -4.0407839937       -1.1415252553
 H         -0.5328592188       -3.6891833258       -2.0559644236
 H         -1.4857299183       -1.4169630568       -2.1684717167
 C         -0.3959727892        0.8970996676       -1.3944710849
 H         -0.5015171176        1.1641214714       -2.4565137941
 C          0.4116826966        1.9736506222       -0.6993652907
 C          1.5368047330        2.6564665605       -1.4151822706
 C          0.2603295219        3.3946474283       -1.1484704737
 H          0.2617290021        4.1745021234       -0.4021094821
 H         -0.4074085208        3.5836009905       -1.9766727531
 H          1.7477777606        2.3471978746       -2.4279857770
 H          2.4143879683        2.9293738909       -0.8490541058
 H          0.5173767927        1.7929197199        0.3644743719
 O         -1.0768669691        0.0436946990        1.2645853005
