  62
        -98.93526106
 C          2.4966094990        1.2426532354        0.2771612990
 C          3.1033433526        0.3136626642        1.1606268767
 C          4.0214079768       -0.6563937698        0.5571850292
 C          4.2273953522       -0.6382667837       -0.7721272505
 C          5.1572773087       -1.5402516006       -1.5374837536
 C          4.5501375508       -2.9019310243       -1.9014326131
 C          4.3876336583       -3.8745474101       -0.7327270268
 H          4.1610311694       -4.8536743908       -1.1592610285
 H          5.3347376872       -3.9625035449       -0.1994951129
 C          3.2729909587       -3.4978051635        0.2534897209
 H          2.6004127307       -2.7735937846       -0.2135814066
 H          2.6737907431       -4.3823492992        0.4825331248
 C          3.7687584235       -2.9295482959        1.5834957541
 H          2.8969310933       -2.6632480882        2.1869857140
 H          4.3290595040       -3.6966407020        2.1227465846
 C          4.6526595073       -1.6826079638        1.4491698351
 H          5.6370626559       -1.9592706070        1.0723797953
 H          4.7683126730       -1.2369384572        2.4402015248
 H          3.5793089371       -2.7371108985       -2.3749287788
 H          5.2070703632       -3.3641031117       -2.6418294719
 H          6.0736211275       -1.6904306095       -0.9658965646
 H          5.4052925644       -1.0161949066       -2.4629127448
 O          3.6056492325        0.2468929130       -1.5915461110
 C          2.7124442629        1.1945515926       -1.1016401970
 O          2.2073552983        1.9034290966       -1.9878203391
 O          2.8909017492        0.3004124913        2.4043709620
 C          1.5423006093        2.2610133276        0.8908391510
 C          0.1545997278        2.0181141024        0.3519878158
 C         -0.4032456194        2.6174384237       -0.7710874510
 C         -1.6686307359        2.2583054360       -1.2043088423
 C         -2.4071547485        1.2952118909       -0.5425992114
 C         -1.8541397305        0.6703757341        0.5670290101
 C         -0.5921169746        1.0403902050        1.0045815189
 H         -0.1631605048        0.5422936690        1.8655678658
 N         -2.5880216816       -0.3170118079        1.2490524016
 S         -3.2662736991       -1.5570710776        0.3418717490
 O         -3.4047523122       -2.6653371043        1.2617389469
 O         -2.5072964659       -1.8111924747       -0.8613047933
 C         -4.8856998653       -0.9402577987       -0.0679248928
 C         -5.2963708716       -0.9023487056       -1.3859232790
 C         -6.5637673384       -0.4230466817       -1.6793076086
 C         -7.3933897867        0.0065651913       -0.6549505005
 C         -6.9668569470       -0.0409777665        0.6640421514
 C         -5.7018807476       -0.5202284294        0.9642124550
 H         -5.3335873094       -0.5767000319        1.9748785946
 H         -7.6148711030        0.2939984248        1.4578385155
 H         -8.3780964820        0.3809163114       -0.8861912570
 H         -6.8968281840       -0.3858121636       -2.7041005698
 H         -4.6141995631       -1.2404004031       -2.1498959640
 H         -2.1087808852       -0.6899109045        2.0563108478
 H         -3.3896188128        1.0136426088       -0.8843978838
 H         -2.0826112638        2.7366331959       -2.0790657831
 H          0.1563831670        3.3385322288       -1.3385389066
 H          1.5113729875        1.9718189057        1.9533562183
 C          2.1220614487        3.6690857978        0.8907819440
 C          2.3031412186        4.5559011990       -0.3030572593
 C          1.2946468838        4.9109482427        0.7473603499
 H          1.5104449841        5.7442954595        1.3993012401
 H          0.2482050850        4.7941533450        0.5142279088
 H          3.2141505863        5.1360597478       -0.3513763223
 H          1.9805175603        4.1975255839       -1.2658837231
 H          2.9294339264        3.7223897021        1.6177489256
