  62
        -98.94493951
 C          2.2024728424        0.9845368876        0.5381226399
 C          2.2904838911        0.1407588499       -0.5958789784
 C          3.0733558233       -1.0883885069       -0.4135568644
 C          3.6113854255       -1.3691506100        0.7871121259
 C          4.4187971440       -2.5909653187        1.1328851380
 C          5.9037697943       -2.4836136742        0.7592345293
 C          6.2072734628       -2.5700749428       -0.7370707764
 H          5.7298149911       -3.4580579842       -1.1525268689
 H          7.2862653574       -2.7031275395       -0.8371617068
 C          5.7861651946       -1.3326107418       -1.5419813072
 H          6.5964604156       -1.0426116343       -2.2144566263
 H          5.6191656847       -0.4945946796       -0.8614443743
 C          4.5354056327       -1.5292958123       -2.3988724565
 H          4.7333576425       -2.2742622872       -3.1726680594
 H          4.3053088499       -0.5824265431       -2.8937089972
 C          3.2931655528       -1.9637730210       -1.6100297338
 H          3.3839452784       -3.0071549460       -1.3078417505
 H          2.4185227384       -1.8635179108       -2.2581247658
 H          6.4247774613       -3.3018873379        1.2615335152
 H          6.2964758720       -1.5451923865        1.1572816181
 H          4.3443218595       -2.7167535384        2.2153296628
 H          3.9824836485       -3.4667274363        0.6512534183
 O          3.4581958790       -0.5557862531        1.8667305435
 C          2.7655557580        0.6412773741        1.7661323257
 O          2.7104499446        1.2936671446        2.8292403240
 H         -0.1636199472        0.4809721188        1.5339200240
 C         -0.6781204493        1.0238738243        0.7492214642
 C          0.0036175774        2.0209341180        0.0620117544
 C         -0.6673836174        2.7099763635       -0.9390685104
 C         -1.9781786662        2.3912679434       -1.2506918732
 C         -2.6487580752        1.3916855020       -0.5706337564
 C         -1.9892527101        0.7010912200        0.4379720907
 N         -2.6661289057       -0.3090512431        1.1468656208
 S         -3.3993426164       -1.5306202469        0.2542664155
 O         -3.4483407817       -2.6697271711        1.1459071673
 O         -2.7399984725       -1.7346323353       -1.0145661106
 C         -5.0555118043       -0.9290687022       -0.0029682113
 C         -5.8083041640       -0.6017269187        1.1078880791
 C         -7.1022212855       -0.1403229586        0.9266789301
 C         -7.6196022197       -0.0180179219       -0.3544850909
 C         -6.8521589322       -0.3540544691       -1.4591806641
 C         -5.5563085893       -0.8151337601       -1.2849465986
 H         -4.9201005313       -1.0835203078       -2.1134128044
 H         -7.2560360312       -0.2589088742       -2.4543034342
 H         -8.6271542432        0.3410890543       -0.4927604943
 H         -7.7020007360        0.1217828028        1.7832982729
 H         -5.3697405354       -0.7161354676        2.0850902108
 H         -2.1168151555       -0.7089941190        1.8943560322
 H         -3.6668073367        1.1362033033       -0.8153089061
 H         -2.4844585011        2.9292654320       -2.0375371123
 H         -0.1608885537        3.4888416672       -1.4847497163
 C          1.4379037768        2.2932190190        0.4475969815
 H          1.4431479917        2.7202970772        1.4612912980
 C          2.1487083172        3.2478484958       -0.4888008448
 C          2.0321009351        4.7283920947       -0.2906114335
 C          3.3181709320        4.0286297447        0.0282129397
 H          4.1659926297        4.1800625932       -0.6229453312
 H          3.5851392412        3.8909303079        1.0662398934
 H          1.4280852007        5.0764149947        0.5335093797
 H          1.9999524227        5.3644124529       -1.1622692458
 H          2.2099615504        2.8669709019       -1.5017924592
 O          1.7465283402        0.3975581961       -1.7007746385
