  62
        -98.93742917
 C         -2.5837728982       -1.3219350329       -0.2004186507
 C         -2.1303251004       -0.0846682874       -0.7248187168
 C         -3.1660268768        0.9408340796       -0.9234782032
 C         -4.4515643086        0.6689804279       -0.6399780051
 C         -5.6184326426        1.6019432220       -0.8170168427
 C         -5.8258482584        2.5679067253        0.3574491853
 C         -4.7928191901        3.6901905758        0.4670869524
 H         -4.7134332017        4.2050358013       -0.4908410546
 H         -5.1771891434        4.4096051369        1.1928340582
 C         -3.4006715823        3.2286816320        0.9216615038
 H         -3.0267093723        3.9027027541        1.6958061193
 H         -3.4730590602        2.2363082421        1.3733402622
 C         -2.3503728741        3.1903783976       -0.1887809356
 H         -2.1691504136        4.2032635866       -0.5557892739
 H         -1.4148290965        2.8153872863        0.2364564427
 C         -2.7235715321        2.2981399260       -1.3800191428
 H         -3.5021522702        2.7732630338       -1.9765488326
 H         -1.8338579714        2.1683533262       -2.0010233027
 H         -6.8120206953        3.0217877234        0.2359248377
 H         -5.8370767279        1.9918577093        1.2856628228
 H         -5.4982066621        2.1694719845       -1.7401207464
 H         -6.5074502908        0.9739279463       -0.9068010311
 O         -4.8498699652       -0.5373702133       -0.1563169109
 C         -3.9299279231       -1.5371266786        0.1119706472
 O         -4.4293835331       -2.5629038952        0.6162161146
 O         -0.9365766985        0.1690403239       -1.0295363770
 C         -1.6336815110       -2.4592032742        0.1416056968
 C         -0.4877577169       -1.9139310683        0.9564156242
 C         -0.7035860467       -1.5881156895        2.2919988410
 C          0.3062200825       -1.0315009866        3.0541773609
 C          1.5492048153       -0.7831992724        2.4987812361
 C          1.7695961746       -1.0935578769        1.1639632126
 C          0.7576259544       -1.6668188982        0.4037443934
 H          0.9299526940       -1.8841928620       -0.6387831215
 N          3.0294369150       -0.8486064335        0.5855851330
 S          3.8159283126        0.5872175776        1.0016733119
 O          4.4725594122        0.3907975834        2.2713662093
 O          2.9076797450        1.7096535832        0.9326559906
 C          5.0347013467        0.6847741338       -0.2947163350
 C          4.7125441615        1.3394832639       -1.4685520969
 C          5.6509137455        1.3882652432       -2.4874345350
 C          6.8868020862        0.7821614654       -2.3172385994
 C          7.1950709805        0.1287118234       -1.1334344647
 C          6.2617804765        0.0768783373       -0.1102583569
 H          6.4580686646       -0.4119394725        0.8296248947
 H          8.1576983825       -0.3391097991       -1.0046383553
 H          7.6145931558        0.8221968896       -3.1122303296
 H          5.4144875042        1.8974940471       -3.4079424409
 H          3.7422913302        1.8031239118       -1.5548271865
 H          3.0016768632       -0.9576598048       -0.4194768454
 H          2.3413297927       -0.3342120910        3.0762706289
 H          0.1247860310       -0.7812038923        4.0889936387
 H         -1.6805740886       -1.7646512427        2.7221578001
 H         -2.2196741145       -3.1299512830        0.7900650998
 C         -1.1814443376       -3.2954225143       -1.0458546980
 C         -2.1486712179       -3.6417625422       -2.1375592268
 C         -0.9899960189       -2.7364085713       -2.4222029137
 H         -0.1761328463       -3.1234143931       -3.0183450963
 H         -1.1802994831       -1.6860368476       -2.5734419814
 H         -2.1348769766       -4.6428728576       -2.5411885257
 H         -3.1361051825       -3.2067937200       -2.0795688823
 H         -0.4960393988       -4.0807534890       -0.7411134418
