  62
        -98.94037339
 C          2.0581288498        1.2331943719       -0.0001839925
 C          2.3584650355        0.0666816839       -0.7478988163
 C          3.7759429114       -0.3261305082       -0.7729787144
 C          4.6952945974        0.4137484438       -0.1294256355
 C          6.1771193173        0.1560330208       -0.0926514680
 C          6.6077642199       -0.8570601931        0.9768160959
 C          6.2434198011       -2.3121217357        0.6790112069
 H          6.5962660795       -2.5774310752       -0.3181212496
 H          6.7897851461       -2.9316675499        1.3929768952
 C          4.7455630133       -2.6272210765        0.7979398016
 H          4.2492915224       -1.8343938187        1.3625554398
 H          4.6112990361       -3.5524645277        1.3628587899
 C          4.0264571177       -2.8058271251       -0.5393153311
 H          2.9667194090       -2.9837407941       -0.3377096366
 H          4.4231032066       -3.6838625062       -1.0541426252
 C          4.1332049089       -1.5985346156       -1.4799423127
 H          5.1375921887       -1.5344475836       -1.8982267585
 H          3.4207816363       -1.7379461109       -2.2968624286
 H          7.6940055855       -0.7891955742        1.0712312758
 H          6.1720585145       -0.5612407579        1.9339700268
 H          6.5150917824       -0.1817937366       -1.0727667808
 H          6.6537780967        1.1135049257        0.1287827593
 O          4.3679494893        1.5309574781        0.5726159607
 C          3.0504485109        1.9440044680        0.6823898276
 O          2.8922272571        2.9485781363        1.4044643981
 O          1.5104239138       -0.6176160044       -1.3751683355
 C          0.6374760566        1.7492055930        0.1666150276
 C         -0.2774524970        0.6109644926        0.5420017847
 C         -0.2306076198        0.1056998807        1.8374971030
 C         -1.0356534512       -0.9533187458        2.2142231073
 C         -1.9003010592       -1.5346737139        1.3038674172
 C         -1.9501195977       -1.0408310377        0.0072505498
 C         -1.1538830971        0.0345823491       -0.3637565152
 H         -1.1863849914        0.3957669101       -1.3797443595
 N         -2.8201774488       -1.6358583679       -0.9268510801
 S         -4.4422813878       -1.7195363346       -0.5287263607
 O         -4.6378040085       -2.7198331402        0.4899241783
 O         -5.1361070434       -1.9354089505       -1.7780842225
 C         -4.8185614087       -0.1022384083        0.1212487655
 C         -4.8056440676        0.1079099907        1.4851829553
 C         -5.0168289154        1.3904083882        1.9661025227
 C         -5.2339285931        2.4342109631        1.0801888191
 C         -5.2480817124        2.2058731742       -0.2875505065
 C         -5.0325392230        0.9270012107       -0.7742776356
 H         -5.0419105555        0.7065578749       -1.8297467323
 H         -5.4211767230        3.0193266597       -0.9738606472
 H         -5.3951253002        3.4317515393        1.4575403590
 H         -5.0078600338        1.5712032426        3.0288915373
 H         -4.6389114519       -0.7305085941        2.1408376656
 H         -2.7004508258       -1.2831430741       -1.8651607590
 H         -2.5297835632       -2.3672142628        1.5742287614
 H         -0.9854077189       -1.3348648783        3.2229127099
 H          0.4551168225        0.5503674376        2.5461045935
 H          0.6886508918        2.4375417354        1.0252697508
 C          0.1193458004        2.5657282379       -1.0082478684
 C          1.0326643260        3.4958440014       -1.7481728536
 C          0.4878042453        2.2794507888       -2.4316733468
 H         -0.2681895098        2.4174265921       -3.1914407799
 H          1.1542383076        1.4543443613       -2.6263455289
 H          0.6568935602        4.4649896093       -2.0394689349
 H          2.0749072329        3.4991681179       -1.4632616184
 H         -0.8908919475        2.9225519830       -0.8307570090
