  62
        -98.94666313
 C         -2.0009181432       -1.4443222624       -0.0916378436
 C         -1.7372693112       -0.1818640339       -0.6731850668
 C         -2.9053336981        0.6856309362       -0.8661166734
 C         -4.1321576027        0.2376629097       -0.5431868582
 C         -5.4219325123        0.9945086334       -0.7098478181
 C         -5.7393272585        1.9507995209        0.4482144359
 C         -4.8700512442        3.2074203410        0.5120887537
 H         -4.8808080535        3.7047356106       -0.4582336455
 H         -5.3385869043        3.8838881289        1.2296806341
 C         -3.4204530191        2.9521512012        0.9480518315
 H         -3.3500416387        1.9684663670        1.4179374515
 H         -3.1320987428        3.6874414021        1.7024960930
 C         -2.3924993883        3.0343300799       -0.1806710284
 H         -2.3503388861        4.0563440315       -0.5639019465
 H         -1.4131940075        2.7847052003        0.2361453068
 C         -2.6660070311        2.0827510482       -1.3529009817
 H         -3.5157254061        2.4365687311       -1.9361841273
 H         -1.7832191964        2.0624239584       -1.9969215141
 H         -5.6543515759        1.4006329579        1.3882559416
 H         -6.7812284336        2.2603040419        0.3381197733
 H         -5.4017195251        1.5503872399       -1.6476694947
 H         -6.2160865106        0.2468795671       -0.7660653036
 O         -4.3477392092       -1.0028756655       -0.0283112609
 C         -3.2908055592       -1.8585912288        0.2391364503
 O         -3.6234997595       -2.9413667537        0.7625178716
 H          1.8788866948       -2.0994292342       -0.2232207095
 C          1.5255391004       -1.6429576656        0.6855739944
 C          0.1863500026       -1.6992087105        1.0361920867
 C         -0.2180931608       -1.0941342745        2.2244452375
 C          0.6908512873       -0.4369523572        3.0297241124
 C          2.0238860689       -0.3617948218        2.6633610104
 C          2.4399408911       -0.9681172961        1.4851327752
 N          3.7935499832       -0.9341201753        1.1019691643
 S          4.2385398433       -0.3571786066       -0.4054822865
 O          3.6140998627       -1.1420412583       -1.4376948764
 O          5.6855376678       -0.3670019629       -0.3824572934
 C          3.6645109938        1.3319479528       -0.4463977401
 C          4.5764167727        2.3391396924       -0.1923512909
 C          4.1409958773        3.6537977168       -0.1763679518
 C          2.8033551554        3.9384911258       -0.4072860941
 C          1.9020691644        2.9155279597       -0.6556097638
 C          2.3291104481        1.5962325727       -0.6752065284
 H          1.6333563257        0.7941384131       -0.8644597473
 H          0.8596233149        3.1255581808       -0.8359804799
 H          2.4608010483        4.9613096662       -0.3950011441
 H          4.8424324755        4.4497747055        0.0156910367
 H          5.6071026372        2.0707792463       -0.0247637402
 H          4.4029872643       -0.5337694620        1.8016705277
 H          2.7359183827        0.1575083863        3.2869277824
 H          0.3598491065        0.0277128894        3.9462821288
 H         -1.2619653508       -1.1459252687        2.5045552309
 C         -0.8514199792       -2.3951977635        0.1894380322
 H         -1.2747971961       -3.2243388568        0.7752316013
 C         -0.3029380642       -2.9501620527       -1.1083891613
 C          0.3559809267       -4.2953986873       -1.1321901528
 C         -0.9958600331       -4.1114092902       -1.7523591438
 H         -1.0781573362       -4.1309789844       -2.8287986114
 H         -1.8553577878       -4.5204841017       -1.2409558853
 H          0.4166019725       -4.8389691778       -0.2013037095
 H          1.2062644305       -4.4390705679       -1.7821094918
 H          0.0917560931       -2.1809685670       -1.7632286876
 O         -0.5891877856        0.2048095226       -1.0114778741
