  62
        -98.93945217
 C         -1.9192703970       -0.8949127643        0.2432397270
 C         -2.2932533892        0.1162755355        1.1626939613
 C         -2.6307748543        1.4256661464        0.5916286778
 C         -2.5041045041        1.6134547503       -0.7343341793
 C         -2.8459149559        2.8829506752       -1.4582887074
 C         -4.3059702480        2.8794513599       -1.9326581791
 C         -5.3072327149        2.4902107539       -0.8451319835
 H         -6.3051076299        2.5511059298       -1.2844494159
 H         -5.1414202903        1.4471399720       -0.5661170875
 C         -5.2482483920        3.3655029993        0.4144921084
 H         -6.2670907803        3.6250831428        0.7091807590
 H         -4.7264621378        4.2973239188        0.1940349633
 C         -4.5931206572        2.6937820321        1.6228426944
 H         -5.0506146555        1.7156906850        1.7920793367
 H         -4.7959572870        3.3066869082        2.5050488580
 C         -3.0728725047        2.5053512077        1.5390563585
 H         -2.5954823578        3.4550770101        1.2873473162
 H         -2.7186146201        2.1972813915        2.5275387612
 H         -4.5469399252        3.8736191401       -2.3131206114
 H         -4.3997655568        2.1673182990       -2.7556441513
 H         -2.6676387704        3.7286773515       -0.7967231117
 H         -2.1883965424        2.9685059685       -2.3250834598
 O         -2.0868802260        0.6394018429       -1.5804655018
 C         -1.7750869772       -0.6326866271       -1.1201841007
 O         -1.3964196943       -1.4108704574       -2.0156108544
 O         -2.3381073006       -0.0693429265        2.4103979341
 C         -1.5310236073       -2.2498396935        0.8065831404
 C         -0.1916485055       -2.6746804331        0.2549995441
 C          0.0785308087       -3.9436809228       -0.2376631498
 C          1.3421039284       -4.2536454791       -0.7127075437
 C          2.3519072482       -3.3112907883       -0.7171395159
 C          2.0875441642       -2.0313764667       -0.2367686086
 C          0.8334185345       -1.7352929927        0.2657364437
 H          0.6405770590       -0.7447005875        0.6538143558
 N          3.0772480002       -1.0369335668       -0.2960877194
 S          2.9069321956        0.4296035555        0.4996644614
 O          2.7769194373        0.2266289078        1.9274311544
 O          1.8635339049        1.1946981569       -0.1374389938
 C          4.4944491358        1.1532369812        0.1331802196
 C          5.5005399993        1.1130469223        1.0797101439
 C          6.7362771599        1.6588117718        0.7685936878
 C          6.9446052099        2.2301468441       -0.4775743599
 C          5.9248402814        2.2640857706       -1.4173721657
 C          4.6870309597        1.7210684690       -1.1121770451
 H          3.8613912855        1.7317496732       -1.8049323651
 H          6.0888098877        2.7113651816       -2.3844701274
 H          7.9066115930        2.6546277838       -0.7174367319
 H          7.5296000254        1.6369714652        1.4981442255
 H          5.2887011018        0.6670716503        2.0380965798
 H          4.0223079210       -1.3914158904       -0.2759823752
 H          3.3311051364       -3.5512063406       -1.1014308963
 H          1.5397348830       -5.2448513691       -1.0918874345
 H         -0.7006457465       -4.6873100605       -0.2662136621
 H         -1.3969530286       -2.0616745865        1.8866740457
 C         -2.6084021728       -3.3181565762        0.6853600022
 C         -4.0431347959       -2.9522838473        0.4523577271
 C         -3.2627610055       -3.6435354248       -0.6228574582
 H         -3.4938349248       -4.6766896487       -0.8373945192
 H         -2.9555758626       -3.0723978232       -1.4845278608
 H         -4.8054624787       -3.5073457142        0.9784192550
 H         -4.2770459585       -1.9055689805        0.3201158020
 H         -2.4351298309       -4.1491871319        1.3622664476
