  62
        -98.93716509
 C         -1.8221263820       -1.4140224913        0.1095719749
 C         -2.1542470931       -0.4088263610       -0.8298984489
 C         -3.5420041653        0.0834280764       -0.7917116735
 C         -4.4010770794       -0.4210553775        0.1113158954
 C         -5.8130536376        0.0419550575        0.3307163071
 C         -5.8164851836        1.3621782945        1.1277993729
 C         -6.3480557364        2.5670929264        0.3510939067
 H         -7.4366549145        2.5010538193        0.2951825623
 H         -6.1017930878        3.4616332556        0.9272837951
 C         -5.8154769437        2.7309204828       -1.0757420657
 H         -6.3501954034        2.0568554870       -1.7466559204
 H         -6.0633671774        3.7461902126       -1.3928428021
 C         -4.3081040301        2.5122704398       -1.2591328052
 H         -3.7767659402        2.6912519344       -0.3238231740
 H         -3.9436234701        3.2503316546       -1.9768412085
 C         -3.9246881047        1.1247009910       -1.8073708651
 H         -4.7358830386        0.7426599096       -2.4330747771
 H         -3.0422598761        1.2340047550       -2.4445063751
 H         -6.4215759152        1.2424820507        2.0277731352
 H         -4.7961719920        1.5639858979        1.4612867306
 H         -6.3119176123        0.1714633326       -0.6271830580
 H         -6.3274704711       -0.7399086922        0.8897987157
 O         -4.0469708208       -1.3820244638        1.0021933124
 C         -2.7652625721       -1.9003595836        1.0220638891
 O         -2.5872346557       -2.7841621283        1.8833925992
 H          0.4005201759        0.4283313976       -0.4574500068
 C          0.8695228200        0.0781114088        0.4500308346
 C          0.5311340585       -1.1712357316        0.9500828661
 C          1.1388548781       -1.6037061705        2.1225688109
 C          2.0612623704       -0.8045405231        2.7762574940
 C          2.3964831711        0.4399815449        2.2739989902
 C          1.7878446160        0.8827245431        1.1069397846
 N          2.1376098149        2.1426247336        0.5750330884
 S          3.7608650108        2.3104463773        0.1864505626
 O          4.5113612244        2.5735666998        1.3886697018
 O          3.8178158105        3.3341578377       -0.8328181912
 C          4.2161042703        0.7198158892       -0.4803258454
 C          3.7011548383        0.3601550529       -1.7098958449
 C          3.9772610114       -0.9019971304       -2.2087246464
 C          4.7532320714       -1.7812484443       -1.4691223234
 C          5.2625612001       -1.4049601280       -0.2362783692
 C          4.9903894593       -0.1432630049        0.2676106562
 H          5.3644509739        0.1892649097        1.2218713975
 H          5.8653070839       -2.0915536011        0.3357806377
 H          4.9624418384       -2.7659120607       -1.8567983012
 H          3.5812415467       -1.1949620270       -3.1680565190
 H          3.1027338222        1.0692943712       -2.2596345619
 H          1.5669497924        2.3988671662       -0.2188529691
 H          3.1189740892        1.0738828120        2.7624890604
 H          2.5248700889       -1.1547199340        3.6857935732
 H          0.8761212132       -2.5705505464        2.5264495109
 C         -0.4447069747       -2.0530866492        0.2086027122
 H         -0.5883328725       -2.9652070102        0.8025160765
 C          0.1286642301       -2.4455259826       -1.1407465184
 C          1.2036765133       -3.4867385094       -1.1957255180
 C         -0.1721916461       -3.8016858408       -1.7001671827
 H         -0.3261072845       -3.8966728310       -2.7645971586
 H         -0.7956474510       -4.4583549529       -1.1105211032
 H          1.9997331264       -3.3647153028       -1.9131842901
 H          1.5156432853       -3.9324320745       -0.2636286055
 H          0.1874507874       -1.6213994370       -1.8386998412
 O         -1.3502734011        0.0747953380       -1.6732448095
