  62
        -98.94049759
 C          1.1778353463        1.4155233315        0.6297373383
 C          1.8751807593        1.0624284784       -0.5541628228
 C          2.9951343315        0.1189487846       -0.3809335039
 C          3.2132724452       -0.4390473344        0.8222337261
 C          4.3243217169       -1.3975225599        1.1404632675
 C          3.9146319186       -2.8584749154        0.9141453953
 C          3.2571471854       -3.1095226046       -0.4417857909
 H          3.0359434162       -4.1771985777       -0.5013074076
 H          2.3084473294       -2.5716431303       -0.4795993619
 C          4.1066125092       -2.6954146391       -1.6503356683
 H          4.0697927806       -3.4918678044       -2.3962860450
 H          5.1494993740       -2.5787879950       -1.3533772928
 C          3.6276024728       -1.4157379823       -2.3373793211
 H          2.5571175872       -1.4871459537       -2.5443881567
 H          4.1423054917       -1.3316433022       -3.2981769368
 C          3.8851615160       -0.1127306093       -1.5708881918
 H          4.9353804600       -0.0656055837       -1.2728734790
 H          3.6863210300        0.7161479689       -2.2567325671
 H          3.2111698741       -3.1479558758        1.6984746729
 H          4.8041795558       -3.4833045037        1.0134865032
 H          4.5974320159       -1.2640876780        2.1889579701
 H          5.1853236751       -1.1540128931        0.5199411785
 O          2.4151276848       -0.2009108360        1.8960331207
 C          1.4086866465        0.7492098353        1.8370475676
 O          0.7933729742        0.9001014235        2.9126624377
 O          1.6196267560        1.5204700518       -1.6952552970
 C          0.1145873596        2.5018282024        0.6676799355
 C         -0.9550681344        2.2603382083       -0.3666967513
 C         -0.9516466265        2.8696494671       -1.6147512991
 C         -1.9534914050        2.5880174018       -2.5262192505
 C         -2.9751054587        1.7097641743       -2.2115821381
 C         -2.9976830564        1.1100929830       -0.9566567549
 C         -1.9876206720        1.3880450663       -0.0484397181
 H         -2.0171483048        0.9379044541        0.9319129120
 N         -4.0507190825        0.2607041891       -0.5976738201
 S         -3.9613823064       -0.8741098105        0.6136907525
 O         -5.1617668529       -1.6617333710        0.4348778423
 O         -3.8098981425       -0.2326105181        1.8950275189
 C         -2.5435398421       -1.8911105385        0.2467570048
 C         -2.6328428382       -2.7416097963       -0.8384885816
 C         -1.5602767307       -3.5638603633       -1.1387520017
 C         -0.4192720224       -3.5227456071       -0.3518466366
 C         -0.3426919617       -2.6604834645        0.7304996686
 C         -1.4135497189       -1.8354248300        1.0361037851
 H         -1.3791423945       -1.1611779425        1.8784116498
 H          0.5434587392       -2.6199020183        1.3452766205
 H          0.4131184862       -4.1692847712       -0.5798409225
 H         -1.6153032746       -4.2361175886       -1.9796805972
 H         -3.5448617772       -2.7610160201       -1.4123929393
 H         -4.6796662360       -0.0015683991       -1.3404612817
 H         -3.7567460290        1.4965085941       -2.9243752211
 H         -1.9381403719        3.0577294422       -3.4979560838
 H         -0.1510689453        3.5421458593       -1.8747171089
 H         -0.3578788801        2.3933082871        1.6575528605
 C          0.6649931715        3.9210602671        0.6106363144
 C          1.8934220318        4.2899564723        1.3872011507
 C          1.9196519001        4.3064304094       -0.1102216855
 H          1.9404739482        5.2641618472       -0.6095400325
 H          2.4714994202        3.5364726605       -0.6240417508
 H          1.9082377615        5.2298188003        1.9181158510
 H          2.4126044400        3.4910282615        1.8977393456
 H         -0.1372258737        4.6532905294        0.6045897448
