  62
        -98.94451289
 C          1.9434844196        1.0886602429       -0.1756507079
 C          2.4402823247       -0.0494954861       -0.8551657123
 C          3.8947343407       -0.2422413492       -0.7881754296
 C          4.6617471657        0.6567065047       -0.1449532074
 C          6.1597693209        0.6086689816       -0.0118574681
 C          6.6545105513       -0.2700135543        1.1453069920
 C          6.5089570429       -1.7765682281        0.9268221359
 H          6.9576294824       -2.0490718224       -0.0289251097
 H          7.0865837015       -2.2709899091        1.7104083700
 C          5.0625404881       -2.2881013059        0.9829189259
 H          5.0174747180       -3.1873137020        1.6013691214
 H          4.4287201363       -1.5386502947        1.4623727653
 C          4.4621504971       -2.6441963657       -0.3772674128
 H          5.0062651129       -3.4872228390       -0.8090080962
 H          3.4251780993       -2.9546595220       -0.2240232089
 C          4.4646212187       -1.4910890408       -1.3895136784
 H          5.4752725638       -1.3133023749       -1.7565488640
 H          3.8293688012       -1.7735691777       -2.2327013526
 H          6.1231651332        0.0191305492        2.0549442808
 H          7.7135087237       -0.0468041517        1.2938960031
 H          6.6001404903        0.2629691200       -0.9473908533
 H          6.4887833724        1.6340783973        0.1697824367
 O          4.1463241131        1.7577092291        0.4644183086
 C          2.7799362606        1.9866360064        0.4868919021
 O          2.4389076751        3.0070249580        1.1190270090
 H         -1.7128427292       -0.0210271633       -1.2104517095
 C         -1.3636942832       -0.4106864492       -0.2696002027
 C         -0.2866332720        0.1662760347        0.3834600640
 C          0.1339838053       -0.3861388981        1.5914650015
 C         -0.4895438473       -1.5009120323        2.1150795379
 C         -1.5586038728       -2.0809407578        1.4540248439
 C         -1.9945482965       -1.5321430880        0.2550500724
 N         -3.0684690433       -2.1087367468       -0.4417727615
 S         -4.2651094014       -1.1463263942       -1.0999881102
 O         -5.3644201365       -2.0538851944       -1.3441126541
 O         -3.7654989504       -0.4296909832       -2.2446580231
 C         -4.6900702314       -0.0140519022        0.2103577708
 C         -5.4738952107       -0.4829133312        1.2469114216
 C         -5.7620438520        0.3625470797        2.3054491137
 C         -5.2566557479        1.6540245850        2.3137763842
 C         -4.4730676024        2.1096690913        1.2651547004
 C         -4.1845247470        1.2695577180        0.2010313169
 H         -3.5832689298        1.5890947015       -0.6338996621
 H         -4.0830783161        3.1151367889        1.2719967932
 H         -5.4768670274        2.3110149716        3.1403837195
 H         -6.3760185047        0.0135204617        3.1199757632
 H         -5.8565107886       -1.4894872999        1.1974491574
 H         -3.4654898211       -2.9229761831        0.0035949058
 H         -2.0417003242       -2.9584234672        1.8561660602
 H         -0.1430888227       -1.9232534070        3.0463175918
 H          0.9709588087        0.0662303468        2.1065466433
 C          0.4508240462        1.3668101660       -0.1573086310
 H          0.3065247016        2.2042387291        0.5410589448
 C         -0.0119332885        1.7969674379       -1.5334777943
 C         -1.1524261487        2.7568992499       -1.6815528883
 C          0.2467771422        3.2035071006       -1.9796437434
 H          0.5294969917        3.3744776201       -3.0075278857
 H          0.7341139441        3.8635404166       -1.2765410150
 H         -1.8383046519        2.6199410561       -2.5048562567
 H         -1.6100482900        3.1283491752       -0.7768698107
 H          0.0973412395        1.0143872791       -2.2761111569
 O          1.7132115348       -0.8624729826       -1.4829033797
