  62
        -98.94414614
 C          2.5069131739        1.1572688077       -0.0785252459
 C          3.2349969887        0.4108550175        0.8777591585
 C          4.0391363700       -0.6960984564        0.3483035663
 C          4.0529036939       -0.9370134666       -0.9757406229
 C          4.8427801761       -2.0127279334       -1.6710509126
 C          4.1545641073       -3.3845861328       -1.6832747257
 C          4.1308278226       -4.1120725962       -0.3383966014
 H          3.8166941433       -5.1391616862       -0.5342011029
 H          5.1411031325       -4.1528364678        0.0697136212
 C          3.1804864599       -3.4953849053        0.6977063395
 H          2.5921780060       -4.2855059936        1.1702620139
 H          2.4748134753       -2.8305080743        0.1932997489
 C          3.8786248924       -2.7202601395        1.8154992303
 H          3.1122148727       -2.2998774771        2.4724893020
 H          4.4896552960       -3.4039888502        2.4088459761
 C          4.7672083820       -1.5689805611        1.3256944847
 H          5.0350419364       -0.9526509062        2.1874385758
 H          5.6800760324       -1.9625677753        0.8794441606
 H          3.1324032366       -3.2592772930       -2.0479730713
 H          4.6890963020       -4.0109529072       -2.4009528956
 H          5.8263332481       -2.1017729802       -1.2091352067
 H          4.9714846883       -1.6836002299       -2.7043008827
 O          3.3394305699       -0.1945833369       -1.8630676485
 C          2.5321653901        0.8523278409       -1.4397478120
 O          1.9070049705        1.4197382890       -2.3542522989
 O          3.2108003135        0.6554853653        2.1150957388
 C          1.6397281593        2.3095955401        0.3924066303
 C          0.1904139270        2.0509551761        0.0586464907
 C         -0.6532072450        3.0145280362       -0.4776784365
 C         -1.9784389941        2.7159067821       -0.7449736128
 C         -2.4914111828        1.4593200215       -0.4832405904
 C         -1.6607025275        0.4911431284        0.0663390303
 C         -0.3359266716        0.7951098144        0.3374251049
 H          0.3088248399        0.0392769803        0.7707091222
 N         -2.1715918164       -0.7930627853        0.3298457676
 S         -3.5661604570       -0.9040846026        1.2611582295
 O         -3.6764898304        0.2052109641        2.1801246558
 O         -3.5222860380       -2.2247425820        1.8502913661
 C         -4.8872132355       -0.8444082928        0.0695860678
 C         -5.8829916435        0.1046550131        0.1927846614
 C         -6.9086065382        0.1241666786       -0.7397224089
 C         -6.9199998465       -0.8006733660       -1.7725831710
 C         -5.9133210325       -1.7487600363       -1.8807301217
 C         -4.8861821447       -1.7749365286       -0.9510092889
 H         -4.0877008293       -2.4966618187       -0.9971440911
 H         -5.9253335169       -2.4663052695       -2.6853029023
 H         -7.7180664077       -0.7829936301       -2.4978720881
 H         -7.6923444693        0.8599042405       -0.6572395989
 H         -5.8287260072        0.8072472306        1.0089670827
 H         -1.4755542115       -1.4426154018        0.6665784375
 H         -3.5204181327        1.2213924778       -0.6976778472
 H         -2.6202864387        3.4734439298       -1.1679737896
 H         -0.2724842835        3.9997073430       -0.6906805194
 H          1.7358754110        2.3174581143        1.4891961107
 C          2.1641911071        3.6226661939       -0.1496057694
 C          1.9743756168        4.8912917035        0.6253927032
 C          3.3333591128        4.2675930322        0.5303987764
 H          4.0833952689        4.7491406486       -0.0787781716
 H          3.7330338554        3.7727278511        1.4037298145
 H          1.7935353374        5.8059377830        0.0812315439
 H          1.4531746606        4.8279579633        1.5687699832
 H          2.1263425115        3.6697993405       -1.2320406387
