  62
        -98.93353078
 C          2.4720775602        0.9273245394       -0.0790810291
 C          3.5968452302        1.1012020095        0.7581629009
 C          4.8879827902        0.6299846295        0.2280432209
 C          4.9258279402        0.0756505694       -0.9964373990
 C          6.1182576902       -0.5178277407       -1.6946010990
 C          6.2027613103       -2.0316295807       -1.4347694988
 C          6.9633550203       -2.4274092505       -0.1697018288
 H          6.8376940803       -3.5047247705       -0.0389620486
 H          8.0285634203       -2.2374589805       -0.3172312488
 C          6.5142843603       -1.7213320803        1.1122485212
 H          5.4239325903       -1.6809500804        1.1472442812
 H          6.8415314503       -2.3263417902        1.9601747312
 C          7.0948942502       -0.3068517503        1.2574243710
 H          7.5570488403       -0.2052858102        2.2416006810
 H          7.8920038902       -0.1724002304        0.5265144310
 C          6.0765275202        0.8352254396        1.1275875609
 H          6.5988654302        1.7446079496        0.8119983207
 H          5.6444356102        1.0498639897        2.1102393308
 H          5.1823067503       -2.4210148907       -1.3883170387
 H          6.6942462903       -2.5064603307       -2.2863504387
 H          5.9641095002       -0.3570115708       -2.7635520890
 H          7.0321256802       -0.0150362206       -1.3925042690
 O          3.8163808802       -0.0686003208       -1.7732027890
 C          2.5680507602        0.3470503492       -1.3434042190
 O          1.6482488502        0.1527834691       -2.1601296390
 O          3.5249371102        1.6203762597        1.9058105408
 C          1.1129232802        1.3898418694        0.4090408009
 C          0.1298363202        0.2446337194        0.4232525710
 C          0.5295837803       -0.9883358706        0.9316551612
 C         -0.3466862097       -2.0554357006        0.9738904213
 C         -1.6460520997       -1.9169802307        0.5189195413
 C         -2.0628334998       -0.6873718408        0.0298754411
 C         -1.1788803298        0.3849582493       -0.0109371590
 H         -1.5183092398        1.3338918592       -0.3961952991
 N         -3.3827758998       -0.5382198809       -0.4293876589
 S         -4.6039160697       -1.2424569208        0.5033744012
 O         -4.3435301697       -1.0164928606        1.9072113112
 O         -4.7490326997       -2.6201468309        0.1044101314
 C         -6.0252671098       -0.3044222909       -0.0224177288
 C         -6.7260075498       -0.7139572311       -1.1408089788
 C         -7.8148538298        0.0345318388       -1.5591721389
 C         -8.1814983898        1.1735592689       -0.8578234990
 C         -7.4687253798        1.5715530191        0.2633782109
 C         -6.3786636198        0.8280604492        0.6871190810
 H         -5.8027991698        1.0938479893        1.5591997810
 H         -7.7579408399        2.4557726391        0.8082537208
 H         -9.0301421699        1.7534094988       -1.1848200791
 H         -8.3734633498       -0.2727727013       -2.4284913488
 H         -6.4098835097       -1.6100513611       -1.6488529587
 H         -3.6023029598        0.4190483991       -0.6685442390
 H         -2.3423006697       -2.7399845807        0.5469607314
 H         -0.0167674297       -3.0066465305        1.3649383514
 H          1.5432362903       -1.1014471005        1.2922053912
 H          1.2708387702        1.7132014195        1.4493166608
 C          0.6481164301        2.5809102593       -0.4037360593
 C         -0.2180925999        3.6347966893        0.2177080406
 C          1.2175591801        3.9313779893       -0.0921706494
 H          1.4440358400        4.5971663692       -0.9113367995
 H          1.9177195601        3.9945945195        0.7279742605
 H         -0.9773834399        4.1036794892       -0.3902459094
 H         -0.4957152799        3.5072438694        1.2532463006
 H          0.4899851001        2.3328013091       -1.4475865192
