  62
        -98.94024943
 C         -2.4000813667       -1.2564677043        0.0278553468
 C         -3.3844675446       -0.8472727110        0.9664395033
 C         -4.4720950707       -0.0051858924        0.4542489953
 C         -4.4892514356        0.3186135807       -0.8511242220
 C         -5.5097024065        1.2046481619       -1.5035009711
 C         -5.0639517197        2.6735456472       -1.4885827064
 C         -4.5910447907        3.1618792013       -0.1192370020
 H         -3.6749793523        2.6315714109        0.1517687697
 H         -4.3316962819        4.2177361640       -0.2227846307
 C         -5.6231316355        2.9965238227        1.0050835247
 H         -5.6513995523        3.9168666796        1.5920644772
 H         -6.6164459041        2.8542195937        0.5780174183
 C         -5.3221796673        1.8558993727        1.9791658587
 H         -5.9794313891        1.9665016168        2.8456330622
 H         -4.2927450694        1.9407212922        2.3362887023
 C         -5.5258279840        0.4385590519        1.4293914295
 H         -5.4651001314       -0.2567866133        2.2715577565
 H         -6.5199415022        0.3552563054        0.9854865401
 H         -5.8977372865        3.2902087065       -1.8290387090
 H         -4.2414450493        2.7930465398       -2.1977849992
 H         -6.4597258698        1.0971931731       -0.9835734470
 H         -5.6335097394        0.8820264576       -2.5387008667
 O         -3.5378378913       -0.0964144972       -1.7239010456
 C         -2.4662664495       -0.8819895726       -1.3145349254
 O         -1.6759472373       -1.1576904925       -2.2380064020
 O         -3.3563088327       -1.1837112905        2.1800204694
 C         -1.2883918081       -2.1439694372        0.5602140918
 C         -0.0564065688       -1.3522098836        0.9137896600
 C          0.5533675916       -1.4909031638        2.1549588129
 C          1.7057346817       -0.7861823798        2.4577489736
 C          2.2765731600        0.0635852846        1.5270196632
 C          1.6731407953        0.2102035270        0.2850949452
 C          0.5135831213       -0.4883583247       -0.0116249030
 H          0.0569217744       -0.3781210277       -0.9848503532
 N          2.2736114890        1.0546905193       -0.6801029084
 S          3.6780397091        0.3986800349       -1.3500360767
 O          3.8754203973        1.0924183266       -2.6036240727
 O          3.5977414797       -1.0432044118       -1.4176040724
 C          4.9485960661        0.8818196467       -0.2012998994
 C          5.2235883633        2.2283292333       -0.0615568133
 C          6.2035946308        2.6206165003        0.8361715308
 C          6.8885435734        1.6653109302        1.5727998309
 C          6.6028412373        0.3173447795        1.4178308962
 C          5.6228608096       -0.0820057390        0.5222961999
 H          5.3618920026       -1.1170500881        0.3710545109
 H          7.1368602274       -0.4234726244        1.9908288065
 H          7.6502160342        1.9734096934        2.2715610614
 H          6.4293902061        3.6676068513        0.9589730763
 H          4.6705426816        2.9348211034       -0.6578190470
 H          1.6402668997        1.2776191816       -1.4369175357
 H          3.1740964039        0.6151823599        1.7544943879
 H          2.1657979355       -0.9016758353        3.4269668486
 H          0.1123186940       -2.1520132369        2.8866133815
 H         -1.6939670248       -2.5586344133        1.4967442263
 C         -0.9792215807       -3.3213324016       -0.3566509280
 C          0.2935550691       -3.4761645133       -1.1294886474
 C          0.0291874266       -4.3526090160        0.0559759418
 H         -0.1972261109       -5.3951883619       -0.1078789016
 H          0.5992141667       -4.1574256334        0.9517911105
 H          0.2239922651       -3.9026929911       -2.1191145274
 H          1.0560562640       -2.7159712422       -1.0486939795
 H         -1.8752607433       -3.6908132298       -0.8463774213
