  62
        -98.93956269
 C         -2.4966647184       -0.9376877318       -0.0892231861
 C         -3.6435540541       -1.0662198779        0.7292984421
 C         -4.9054749583       -0.5929273252        0.1459239799
 C         -4.9036545765       -0.0864665839       -1.1010377490
 C         -6.1071729368        0.4807138592       -1.7956778167
 C         -6.2372669408        1.9891943323       -1.5422622751
 C         -6.1195821380        2.3810305866       -0.0693413125
 H         -5.1058984628        2.1656226544        0.2766582290
 H         -6.2550458539        3.4631125281       -0.0087076066
 C         -7.1291901659        1.6866850118        0.8553887519
 H         -7.5512798352        2.4306565999        1.5342987075
 H         -7.9527231258        1.2812632290        0.2665399917
 C         -6.5342976886        0.5773121509        1.7246401888
 H         -7.2727551296        0.3076776966        2.4844180790
 H         -5.6516316941        0.9548003206        2.2474104002
 C         -6.1447794785       -0.7105982618        0.9881013676
 H         -5.9219855281       -1.4700140915        1.7434020569
 H         -6.9872236867       -1.0599961443        0.3878486837
 H         -7.2001485460        2.3230375301       -1.9331917837
 H         -5.4483228950        2.5028753617       -2.0965459390
 H         -6.9989529585       -0.0352541140       -1.4450869635
 H         -5.9970596592        0.3102002680       -2.8678569457
 O         -3.7835678558        0.0083857133       -1.8623239653
 C         -2.5513834259       -0.4054568346       -1.3773286821
 O         -1.6068312889       -0.2545057155       -2.1746732427
 O         -3.6120098691       -1.5512171765        1.8929656250
 C         -1.1554081922       -1.3970830041        0.4503245395
 C         -0.1663757652       -0.2569639096        0.4568785092
 C         -0.5650351905        0.9819628823        0.9519001361
 C          0.3130019263        2.0477518334        0.9851854001
 C          1.6127687922        1.9025665212        0.5330556289
 C          2.0278508130        0.6678251804        0.0557100815
 C          1.1422292165       -0.4037555970        0.0253267055
 H          1.4804140941       -1.3566401402       -0.3510214404
 N          3.3461639485        0.5109266956       -0.4053325042
 S          4.5744953622        1.2378477902        0.4992182087
 O          4.3390748521        1.0275682568        1.9099771148
 O          4.7008511282        2.6115109403        0.0804641602
 C          5.9957454764        0.3065041598       -0.0382887835
 C          6.3979970488       -0.7901290448        0.7007536649
 C          7.4892680523       -1.5265608992        0.2676622674
 C          8.1541606782       -1.1576492634       -0.8921830611
 C          7.7384226643       -0.0546432460       -1.6231892871
 C          6.6485819362        0.6869059647       -1.1953939508
 H          6.2957314416        1.5559346275       -1.7257547560
 H          8.2597849276        0.2300304236       -2.5228163199
 H          9.0038777073       -1.7317080227       -1.2264848870
 H          7.8166576144       -2.3826045627        0.8354930192
 H          5.8577510986       -1.0340621805        1.6015011715
 H          3.5650787727       -0.4508097064       -0.6263102101
 H          2.3099163562        2.7249563832        0.5535987544
 H         -0.0155569906        3.0033396919        1.3665797340
 H         -1.5792397539        1.0999990302        1.3094027427
 H         -1.3452951027       -1.6863376568        1.4952510560
 C         -0.6764984633       -2.6160385803       -0.3107445424
 C          0.1866821492       -3.6406193726        0.3619147221
 C         -1.2432409720       -3.9566483104        0.0448460766
 H         -1.4553205167       -4.6545317078       -0.7511231751
 H         -1.9536477493       -3.9929131626        0.8577356606
 H          0.9563055116       -4.1281594656       -0.2176877811
 H          0.4504469299       -3.4715940449        1.3951247672
 H         -0.5054171249       -2.4071848339       -1.3610804814
