  62
        -98.93465961
 C         -2.1205615847       -0.7869334100       -0.4024087046
 C         -3.1281898464       -0.5994091050        0.5793631721
 C         -3.7038869447        0.7489784571        0.6989596129
 C         -3.2446663800        1.7299541371       -0.0961297715
 C         -3.6433400197        3.1843275970       -0.1258918778
 C         -5.1370524973        3.5129948576       -0.0011607982
 C         -6.0822735404        2.4854425031       -0.6408022647
 H         -6.7781278147        3.0062875113       -1.3010359531
 H         -5.5128689011        1.7850839764       -1.2541919621
 C         -6.9047546530        1.7084286512        0.3898264051
 H         -7.2620620152        2.4059802490        1.1504221230
 H         -7.7825913606        1.2877484009       -0.1063477911
 C         -6.1754625465        0.5530961317        1.0744061859
 H         -6.0112958003       -0.2574434005        0.3593216802
 H         -6.8273946636        0.1609218417        1.8585746481
 C         -4.8146823893        0.9053143908        1.6975028596
 H         -4.8254535894        1.9014123159        2.1333513408
 H         -4.6098066708        0.1811918852        2.4907267890
 H         -5.3976636910        3.6301623025        1.0497201275
 H         -5.2847189742        4.4866740509       -0.4713944002
 H         -3.0938946763        3.7011014641        0.6667771151
 H         -3.2630668340        3.5629775073       -1.0778305714
 O         -2.2667119742        1.5119314584       -1.0180313953
 C         -1.6796258572        0.2696023849       -1.1972796105
 O         -0.8053348552        0.2637602800       -2.0883746051
 O         -3.5300068145       -1.5268753831        1.3312351589
 C         -1.5259506283       -2.1823229361       -0.5118829261
 C         -0.2070141268       -2.2377633559        0.2215641710
 C         -0.0813094222       -2.9463723348        1.4106451190
 C          1.1169663523       -2.9548901162        2.1036038560
 C          2.2122384422       -2.2551897796        1.6291724183
 C          2.0922621310       -1.5373391317        0.4467504316
 C          0.8955763465       -1.5417196571       -0.2535338261
 H          0.8054036633       -0.9648283637       -1.1622043799
 N          3.1994705672       -0.8000380869       -0.0431179015
 S          3.6304213557        0.5307785118        0.9096259987
 O          3.9979914148        0.0562646710        2.2190730804
 O          2.5896584977        1.5379486258        0.8676584592
 C          5.0765501063        1.1020326577        0.0400150964
 C          6.3063991302        0.5602114965        0.3598312255
 C          7.4247949323        0.9768569220       -0.3443929036
 C          7.2947895512        1.9202841295       -1.3526134790
 C          6.0533484453        2.4554050804       -1.6618793924
 C          4.9308369355        2.0426334585       -0.9613616141
 H          3.9477383787        2.4387613762       -1.1624394087
 H          5.9543433000        3.1901716302       -2.4447430458
 H          8.1661448268        2.2431601138       -1.9000653946
 H          8.3921105387        0.5651725544       -0.1059082043
 H          6.3590510116       -0.1645566813        1.1550951060
 H          2.9970770144       -0.4459849153       -0.9710391054
 H          3.1429343762       -2.2339303660        2.1713068039
 H          1.1981039596       -3.5089562894        3.0265820622
 H         -0.9389994018       -3.4746363076        1.8015429264
 H         -2.2303183256       -2.8356864618        0.0202236664
 C         -1.3969195831       -2.6760374493       -1.9389183942
 C         -1.2630682769       -4.1477707989       -2.1861965666
 C         -2.5299320102       -3.4376993723       -2.5557038053
 H         -2.7483563136       -3.2773625485       -3.6008093998
 H         -3.4067473626       -3.6085527765       -1.9482242893
 H         -0.6090629681       -4.4789091758       -2.9779669489
 H         -1.2804425042       -4.8010594386       -1.3270482585
 H         -0.8450124656       -2.0035743306       -2.5822732367
