  62
        -98.94142397
 C          1.2288314059        1.1663249794       -0.0301353705
 C          1.6418473667        0.0930328496        0.7920248216
 C          2.6506805466       -0.8174389684        0.2283076731
 C          3.0848719317       -0.6198777635       -1.0280064617
 C          4.0600929770       -1.4499551063       -1.8252207691
 C          5.3158691670       -1.9600464732       -1.1052189769
 C          5.8688972731       -1.0229545072       -0.0214215808
 H          6.9348221510       -0.8677726495       -0.1977649230
 H          5.3818840566       -0.0485618590       -0.0868360713
 C          5.7033587854       -1.5830185704        1.3932853030
 H          5.9593250956       -2.6446815269        1.3813921483
 H          6.4144259425       -1.0822740927        2.0546223026
 C          4.3150143052       -1.4104920342        2.0078325481
 H          4.1391947278       -0.3553028751        2.2335905757
 H          4.2982547710       -1.9496605383        2.9579768210
 C          3.1428467706       -1.9022101790        1.1427106260
 H          3.4056468048       -2.8027468708        0.5925546972
 H          2.3070436170       -2.1375382549        1.8077794988
 H          5.1109616458       -2.9340411602       -0.6628615710
 H          6.0753851416       -2.1182098301       -1.8728367508
 H          3.5128772489       -2.3012658235       -2.2420358343
 H          4.3521918675       -0.8148409126       -2.6652848461
 O          2.6329242620        0.4079462156       -1.8014228882
 C          1.6951761700        1.3160991480       -1.3346832091
 O          1.3705047129        2.1894457292       -2.1619574734
 O          1.1746125259       -0.1062170305        1.9464361921
 C          0.1814488558        2.1309732820        0.4904895385
 C         -1.0938726852        2.0252395220       -0.3114382770
 C         -1.9278592673        3.1091732318       -0.5587973546
 C         -3.1015859342        2.9394716369       -1.2726739140
 C         -3.4821337070        1.6919890238       -1.7334800585
 C         -2.6567451577        0.6007383430       -1.4875291383
 C         -1.4757307298        0.7784594112       -0.7858466117
 H         -0.8302267581       -0.0715860457       -0.6305652894
 N         -2.9943785385       -0.6840577527       -1.9368113619
 S         -2.5833399981       -2.0245512001       -1.0270919041
 O         -1.1693946343       -2.2902294899       -1.1246002133
 O         -3.4548629146       -3.0674698932       -1.5261815011
 C         -3.0498050122       -1.6068474017        0.6434373468
 C         -2.0975055255       -1.3209415122        1.5994122890
 C         -2.5140743981       -0.9543864116        2.8701104164
 C         -3.8662990547       -0.8827441478        3.1634947555
 C         -4.8121802485       -1.1820140306        2.1940409670
 C         -4.4023762177       -1.5440694486        0.9220343030
 H         -5.1054876729       -1.7963811184        0.1449791568
 H         -5.8638553941       -1.1314115689        2.4254402241
 H         -4.1832616702       -0.5949493463        4.1534744108
 H         -1.7690654401       -0.7225215605        3.6146697812
 H         -1.0485554745       -1.3787819452        1.3541548124
 H         -3.9120749099       -0.7693079493       -2.3475769613
 H         -4.3993699798        1.5626203450       -2.2868937395
 H         -3.7348252487        3.7916381331       -1.4670648320
 H         -1.6544042765        4.0878583443       -0.1999618086
 H         -0.0426505396        1.7914313627        1.5140179091
 C          0.7328816296        3.5405963339        0.5556643810
 C          0.2874583853        4.4831500151        1.6326478276
 C          1.6667637765        3.8997491111        1.6715137550
 H          2.5085581997        4.5398525505        1.4540501630
 H          1.8789326068        3.1349655234        2.4045536273
 H          0.1835013458        5.5299745029        1.3898783531
 H         -0.4332966915        4.1204150123        2.3497256213
 H          0.9481592849        3.9462856138       -0.4263577526
