  62
        -98.94804181
 C          1.2554622813        1.0660499622       -0.0236762832
 C          1.6216281813        0.0069981982        0.8401677406
 C          2.6351437218       -0.9192639941        0.3262477570
 C          3.1034426481       -0.7660105827       -0.9255506495
 C          4.1109590296       -1.6516558267       -1.6073355009
 C          5.5706687474       -1.3095280564       -1.2781105032
 C          6.0269768299       -1.6893758898        0.1311451312
 H          5.7861169089       -2.7362345758        0.3189059584
 H          7.1146020112       -1.5962686326        0.1510887303
 C          5.4358620287       -0.8145879865        1.2453484693
 H          5.0330452924        0.1035359280        0.8117125989
 H          6.2283683070       -0.5219361907        1.9376385630
 C          4.3417750384       -1.4928979501        2.0696938345
 H          4.7639938702       -2.3414959189        2.6123832700
 H          3.9706338317       -0.7737724911        2.8041798579
 C          3.1461613768       -1.9877020322        1.2448556247
 H          3.4198336459       -2.8774180562        0.6775545448
 H          2.3371680020       -2.2503030364        1.9314140876
 H          5.7210463236       -0.2388440249       -1.4343147748
 H          6.1986825811       -1.8418026393       -1.9962469041
 H          3.9113116508       -2.6936200650       -1.3541368680
 H          3.9594336078       -1.5226345759       -2.6813862698
 O          2.6831871387        0.2313878288       -1.7484794559
 C          1.7578420865        1.1734969046       -1.3201222655
 O          1.4709428135        2.0341009382       -2.1742623127
 H         -0.8394716438       -0.1396667778       -0.6116281854
 C         -1.4471749074        0.7255089608       -0.8256229175
 C         -1.0336663866        1.9777287908       -0.3935770780
 C         -1.8175136001        3.0792369292       -0.7151446125
 C         -2.9734254300        2.9207907655       -1.4600972371
 C         -3.3868766720        1.6685384596       -1.8774232950
 C         -2.6121471437        0.5597770146       -1.5563274078
 N         -2.9861937838       -0.7315748373       -1.9557949846
 S         -2.6632986331       -2.0356168589       -0.9606439254
 O         -1.2615950792       -2.3709908701       -1.0030239594
 O         -3.5704681637       -3.0643123499       -1.4245642088
 C         -3.1514761660       -1.4984869710        0.6691636260
 C         -4.5049016177       -1.3353767600        0.8983875375
 C         -4.9282909737       -0.8740005752        2.1332234955
 C         -3.9943563656       -0.5776775600        3.1150613105
 C         -2.6415170367       -0.7520122530        2.8720178907
 C         -2.2115043821       -1.2175166278        1.6387227473
 H         -1.1615054625       -1.3538237155        1.4316487364
 H         -1.9059970558       -0.5238647770        3.6270902082
 H         -4.3214606245       -0.2119754697        4.0755800206
 H         -5.9809165882       -0.7438169527        2.3259098107
 H         -5.1994563830       -1.5878407460        0.1137251474
 H         -3.8936823942       -0.8010781801       -2.3915905202
 H         -4.2906867486        1.5480596388       -2.4544178624
 H         -3.5670639210        3.7860118368       -1.7129262741
 H         -1.5185898326        4.0622951097       -0.3902136605
 C          0.2193292710        2.0695879454        0.4438777549
 H         -0.0438169494        1.7588123511        1.4672401179
 C          0.8070697000        3.4649147151        0.4955660620
 C          0.3514575075        4.4441164243        1.5349029861
 C          1.7120452543        3.8250324111        1.6346669838
 H          2.5779261730        4.4373013311        1.4321217088
 H          1.8785223652        3.0721138537        2.3913989311
 H          0.2847839019        5.4873508066        1.2650929046
 H         -0.4034413330        4.1178546023        2.2341162944
 H          1.0666298784        3.8413252735       -0.4873878481
 O          1.1181479743       -0.1595368940        1.9843933065
