  62
        -98.93828999
 C         -1.9369149990       -0.8647707396        0.1169238398
 C         -2.3597591889        0.4842536504        0.1054327199
 C         -3.7756742488        0.7249040705        0.4422106499
 C         -4.5615718389       -0.3190367094        0.7572983099
 C         -6.0320470589       -0.2940389893        1.0698843899
 C         -6.8587039790       -0.5705455092       -0.1973285701
 C         -7.1787991289        0.6637178409       -1.0398020600
 H         -7.6428199789        0.3139956810       -1.9649139401
 H         -7.9158855888        1.2749930509       -0.5148395700
 C         -5.9787363188        1.5455728308       -1.3955720100
 H         -5.1331951189        0.9193405808       -1.6862162101
 H         -6.2506413288        2.1442503109       -2.2672465600
 C         -5.5637222687        2.4891675807       -0.2567625400
 H         -6.3527572387        2.5065927907        0.4950047300
 H         -5.4823858686        3.5071564607       -0.6435059199
 C         -4.2200389387        2.1616680006        0.4134338500
 H         -3.4145195287        2.6883932105       -0.1082228800
 H         -4.2292894187        2.5457903305        1.4389345000
 H         -6.3105586390       -1.2974087792       -0.8022191302
 H         -7.8031727790       -1.0343603591        0.0941877999
 H         -6.2129648490       -1.0987070093        1.7855191298
 H         -6.3133492788        0.6508353407        1.5251025599
 O         -4.1048523790       -1.6014000695        0.7806711098
 C         -2.7964867891       -1.9085060196        0.4588988898
 O         -2.5207235292       -3.1238089696        0.5182468097
 O         -1.6002658488        1.4472011404       -0.1800351601
 C         -0.5051470890       -1.2227354197       -0.2446535802
 C          0.4414009311       -0.5342912198        0.7076600898
 C          0.3243720911       -0.8116331599        2.0682535198
 C          1.1437661011       -0.1896360200        2.9888970198
 C          2.1046477012        0.7155630599        2.5718141898
 C          2.2313222912        0.9989479800        1.2176089298
 C          1.4061347611        0.3690814601        0.2935785698
 H          1.5113323411        0.6263883302       -0.7462080402
 N          3.1794857013        1.9347797899        0.7781985599
 S          4.1103965912        1.6837158599       -0.5840881902
 O          5.1320618313        2.7046023398       -0.5118681201
 O          3.2903254312        1.6826278301       -1.7676528601
 C          4.8483487211        0.0790713599       -0.3358926902
 C          6.0137505611        0.0007141897        0.4020333797
 C          6.5702353810       -1.2436498003        0.6481866897
 C          5.9496629009       -2.3846908703        0.1622048996
 C          4.7798251509       -2.2891288901       -0.5753117704
 C          4.2203885610       -1.0465396201       -0.8293116103
 H          3.3159805510       -0.9352265100       -1.4038499203
 H          4.2992582308       -3.1768318801       -0.9548037804
 H          6.3810268008       -3.3541110503        0.3558821696
 H          7.4826674110       -1.3206805404        1.2172424596
 H          6.4689446712        0.9133618497        0.7511777798
 H          3.7276948613        2.3532693799        1.5150005499
 H          2.7405383312        1.2101269598        3.2902604098
 H          1.0367026011       -0.4103734701        4.0402509198
 H         -0.4305283390       -1.5160018198        2.3913483297
 H         -0.4192579791       -2.3075563697       -0.0867872603
 C         -0.2414218790       -0.9229278896       -1.7047067602
 C          0.7899241709       -1.7071145297       -2.4567656103
 C         -0.6667824291       -1.9213687096       -2.7373497203
 H         -1.0741237191       -1.5579766295       -3.6689277202
 H         -1.1271499892       -2.8333314695       -2.3852312003
 H          1.3865554410       -1.1955480497       -3.1978588803
 H          1.3138718609       -2.4836948098       -1.9197850503
 H         -0.3644875789        0.1256744104       -1.9507506902
