  62
        -98.94526018
 C         -2.3335411214       -1.0606011679        0.1412881992
 C         -1.9333230005       -0.1326667483       -0.8508206908
 C         -2.5783930795        1.1874299722       -0.7855802211
 C         -3.4858122596        1.4333700029        0.1771228886
 C         -4.1740690487        2.7501420034        0.3908074083
 C         -3.3898745684        3.6345734729        1.3705998885
 C         -1.9006377282        3.7470122318        1.0436966389
 H         -1.4538022779        4.4144679416        1.7840729590
 H         -1.4335602389        2.7674158415        1.1722325591
 C         -1.5991373674        4.2706050315       -0.3674362111
 H         -2.4808459169        4.7681371721       -0.7727288814
 H         -0.8071090569        5.0194946609       -0.2998993609
 C         -1.1210851679        3.2014155310       -1.3516624408
 H         -0.2970047684        2.6370520605       -0.9083489306
 H         -0.7368960673        3.7089562807       -2.2403060408
 C         -2.1829944085        2.2004245118       -1.8227953411
 H         -3.0590751580        2.7369653024       -2.1922226914
 H         -1.7538099687        1.6275138314       -2.6497945209
 H         -3.8390844976        4.6292885533        1.3746118783
 H         -3.4896217390        3.2136315931        2.3739692485
 H         -4.2826355981        3.2573228334       -0.5657768717
 H         -5.1654386790        2.5569873242        0.8040306781
 O         -3.8457607106        0.5144910632        1.1102205986
 C         -3.2760036615       -0.7492620172        1.1201938789
 O         -3.6807148323       -1.4896364468        2.0403453688
 H         -0.2315304116       -0.7181065793        1.5275754298
 C          0.3837764981       -1.4365311698        0.9993502400
 C         -0.2291391224       -2.4082679895        0.2190987299
 C          0.5760579971       -3.3242889901       -0.4469510598
 C          1.9535929771       -3.2659350911       -0.3277229994
 C          2.5590991576       -2.2951155215        0.4480335407
 C          1.7650944281       -1.3663703808        1.1087824304
 N          2.3601067386       -0.3723200912        1.9012658905
 S          3.7623980693        0.3886617877        1.4033855508
 O          4.8770748186       -0.5118070931        1.5636622912
 O          3.8118938299        1.6058396878        2.1817118507
 C          3.5394088700        0.7742506577       -0.3226638193
 C          2.7001058709        1.8202694783       -0.6508902296
 C          2.5013999015        2.1273289884       -1.9866075097
 C          3.1322745912        1.3780863878       -2.9675758195
 C          3.9740237504        0.3328421872       -2.6223385291
 C          4.1845213898        0.0275709072       -1.2873001991
 H          4.8450164891       -0.7659844833       -0.9794736488
 H          4.4671170102       -0.2447233432       -3.3874773389
 H          2.9684515517        1.6149632878       -4.0068788595
 H          1.8536270422        2.9450171188       -2.2583645700
 H          2.2327223211        2.3856991287        0.1401096902
 H          1.7078217189        0.2876455593        2.2962203402
 H          3.6289965276       -2.2496545322        0.5654022210
 H          2.5654500667       -3.9888177916       -0.8452369192
 H          0.1235668967       -4.0876010598       -1.0581720998
 C         -1.7371910024       -2.4549675284        0.1526088195
 H         -2.1009699031       -2.9348645180        1.0738093594
 C         -2.2542687827       -3.2389562381       -1.0381086806
 C         -2.4989228938       -4.7134740079       -0.9323708005
 C         -3.6566836031       -3.7646831271       -0.9986214510
 H         -4.2476044028       -3.7295747567       -1.9015782411
 H         -4.2261173532       -3.5851642666       -0.0978612411
 H         -2.2980838740       -5.3333575681       -1.7932772104
 H         -2.2912513044       -5.1899045780        0.0139857796
 H         -1.8945622621       -2.8437262085       -1.9812567505
 O         -1.0818400504       -0.3890433090       -1.7402168505
