  62
        -98.94027412
 C         -2.8127459648       -0.9085304972        0.2225404694
 C         -2.4566521438       -0.1631877405       -0.9278947638
 C         -2.7937020293        1.2682964798       -0.8982996556
 C         -3.4730070131        1.7733868085        0.1484157399
 C         -3.9278086369        3.1937873972        0.3964745407
 C         -3.0644624215        4.3595462536       -0.0922541705
 C         -1.6105647907        4.3515743840        0.3768981225
 H         -1.1315396865        5.2508531413       -0.0172149435
 H         -1.5840955614        4.4132792174        1.4676981727
 C         -0.7821800557        3.1372433258       -0.0468294349
 H          0.2693808994        3.3391956667        0.1825179893
 H         -1.0668175304        2.2674343454        0.5515545704
 C         -0.8678370498        2.7628248580       -1.5282650472
 H         -0.6737861707        3.6465426027       -2.1388814214
 H         -0.0643204517        2.0451858085       -1.7186948357
 C         -2.1973967290        2.1173718483       -1.9799082229
 H         -2.9124227963        2.8646086488       -2.3180101436
 H         -1.9826530255        1.4535738856       -2.8214700747
 H         -3.5304932410        5.2701017417        0.2937391471
 H         -3.0911442476        4.4239780905       -1.1762760825
 H         -4.9230049838        3.2969901919       -0.0488595325
 H         -4.0549391249        3.2719672593        1.4798134655
 O         -3.9083361853        0.9859933833        1.1734174809
 C         -3.5321382514       -0.3459069423        1.2727626011
 O         -3.8915492913       -0.9051927654        2.3291242123
 H         -0.6261241607       -0.5118924870        1.3894582273
 C         -0.0857786402       -1.2533439923        0.8112731034
 C         -0.7879040638       -2.2985584165        0.2232971531
 C         -0.0740467025       -3.2408382377       -0.5045729963
 C          1.2961854522       -3.1150251845       -0.6613319178
 C          1.9826610205       -2.0513986865       -0.1050542466
 C          1.2801608088       -1.1103419866        0.6359166761
 N          1.9625401881       -0.0109701204        1.1957536346
 S          2.7678740743        0.9942313972        0.1088894530
 O          2.7862699293        2.2973282384        0.7379670632
 O          2.1952292279        0.9231180341       -1.2138245796
 C          4.4194359108        0.3296359237        0.0965350450
 C          4.9641127524       -0.1414135066       -1.0816745862
 C          6.2488185093       -0.6624114988       -1.0644160351
 C          6.9613267126       -0.7025549446        0.1242864891
 C          6.4004877238       -0.2230490783        1.2988667783
 C          5.1172622902        0.2995862839        1.2880920636
 H          4.6450863518        0.6862681957        2.1757544545
 H          6.9579170140       -0.2557071864        2.2210507872
 H          7.9599414732       -1.1098793084        0.1353063474
 H          6.6864580337       -1.0351304164       -1.9765256174
 H          4.3692648424       -0.0941102389       -1.9800346920
 H          1.3741627428        0.5517264378        1.7944932621
 H          3.0453580807       -1.9368661436       -0.2448502666
 H          1.8353669841       -3.8508558625       -1.2381829683
 H         -0.5935952919       -4.0648117898       -0.9657420968
 C         -2.2917979967       -2.3254858160        0.3799793733
 H         -2.5337018502       -2.6322179529        1.4083456644
 C         -2.9804977695       -3.2659941090       -0.5861285602
 C         -3.1731277731       -4.7088738423       -0.2299967615
 C         -4.3464593025       -3.7771850481       -0.2433985960
 H         -5.0748406222       -3.8719545237       -1.0345690680
 H         -4.7671680913       -3.4653551295        0.7017121397
 H         -3.0998417770       -5.4474447014       -1.0139569523
 H         -2.8034729997       -5.0418157487        0.7280642799
 H         -2.7844304205       -3.0113893058       -1.6213403010
 O         -1.8637100533       -0.6599472122       -1.9193358945
