  62
        -98.93396358
 C         -2.2200986521       -1.1130963818       -0.4266080755
 C         -3.4897499898       -0.9719427517        0.1860134819
 C         -4.2830799158        0.2090553689       -0.1920942971
 C         -3.7707220298        1.0778309762       -1.0804614333
 C         -4.3787479375        2.3704483041       -1.5505188488
 C         -3.8677798537        3.5483927535       -0.7035552241
 C         -4.6695968184        3.8230400318        0.5683043473
 H         -4.1283549502        4.5847487911        1.1342023974
 H         -5.6395589513        4.2441236909        0.2957558408
 C         -4.9001467633        2.6095801817        1.4729705098
 H         -3.9797240709        2.0272145124        1.5483653251
 H         -5.1314098038        2.9783723201        2.4741566162
 C         -6.0514928116        1.7114357490        0.9965004632
 H         -6.6221574787        2.2404344774        0.2335144986
 H         -6.7366720777        1.5320698578        1.8274541652
 C         -5.6315864223        0.3330692186        0.4636718181
 H         -6.3934075571       -0.0265969650       -0.2356945800
 H         -5.6027048875       -0.3835363519        1.2902170585
 H         -3.8837758607        4.4527190923       -1.3154131067
 H         -2.8239095660        3.3471968077       -0.4470334683
 H         -4.0472338062        2.5136371629       -2.5810380540
 H         -5.4631544741        2.3146936830       -1.5342832425
 O         -2.5479401993        0.9038109426       -1.6525749844
 C         -1.7378085155       -0.1782481442       -1.3430723688
 O         -0.6541718633       -0.1848728244       -1.9574371788
 O         -3.9434073840       -1.8008417293        1.0207569793
 C         -1.3731726169       -2.3071042978       -0.0145076578
 C         -0.3190697694       -1.8313084340        0.9565200576
 C         -0.6329834065       -1.7701295253        2.3121147809
 C          0.2890067054       -1.3051532764        3.2301435231
 C          1.5401899405       -0.8878807610        2.8129964691
 C          1.8634278636       -0.9417371513        1.4617967372
 C          0.9375349047       -1.4146001579        0.5412599037
 H          1.1981116786       -1.4198959322       -0.5042667358
 N          3.1436490936       -0.5524350741        1.0265803838
 S          3.2772532856        0.3336262354       -0.4082710015
 O          2.3525025857        1.4448426382       -0.3904199179
 O          3.2071387314       -0.5725316151       -1.5250495778
 C          4.9516432366        0.9296768246       -0.2395490981
 C          5.9919164954        0.0583241267       -0.5025838120
 C          7.2949319003        0.5033383876       -0.3466814756
 C          7.5358682617        1.8053561342        0.0666338974
 C          6.4823339016        2.6691786298        0.3245790241
 C          5.1764998894        2.2292321158        0.1727470498
 H          4.3255660130        2.8662652615        0.3540297290
 H          6.6718113239        3.6819464861        0.6419637148
 H          8.5509330065        2.1499213542        0.1855239159
 H          8.1164195604       -0.1648033608       -0.5488081686
 H          5.7555643888       -0.9401624751       -0.8310982817
 H          3.6721272057       -0.1012364572        1.7623996929
 H          2.2629449464       -0.5225431652        3.5270371725
 H          0.0315056002       -1.2630743961        4.2776896802
 H         -1.6182496048       -2.0787940098        2.6319195398
 H         -2.0592262026       -2.9650502913        0.5372097658
 C         -0.8100296190       -3.0792597382       -1.1875278160
 C         -0.3176743582       -4.4769250378       -0.9642181159
 C         -1.5815738309       -4.2415639883       -1.7340162945
 H         -1.5760790120       -4.4052837335       -2.8012078826
 H         -2.5209653468       -4.4851321708       -1.2593778399
 H          0.5600853488       -4.8033790723       -1.5005058072
 H         -0.4004155054       -4.8800257415        0.0338658072
 H         -0.2753647397       -2.4632391225       -1.8995473909
