  62
        -98.94065470
 C          1.6002642684        1.3655679473        0.7266849854
 C          1.5925563736       -0.0172364873        1.0490899080
 C          2.8573981552       -0.7352795295        0.8675833838
 C          3.9479113871       -0.0635644736        0.4569065539
 C          5.3215249355       -0.6444022070        0.2562020307
 C          5.5266808479       -1.3034342201       -1.1146440663
 C          4.7990465620       -2.6339455349       -1.3116265142
 H          5.1992901057       -3.0855971469       -2.2215771166
 H          5.0381280127       -3.3028738660       -0.4843794319
 C          3.2754875336       -2.5062522283       -1.4515192893
 H          3.0164173461       -1.4700708388       -1.6812476304
 H          2.9356064636       -3.1137394156       -2.2931658566
 C          2.4837536830       -2.9523369253       -0.2219838798
 H          2.6233252307       -4.0245237078       -0.0678591830
 H          1.4238762521       -2.7682893901       -0.4143496257
 C          2.8587468280       -2.2194834461        1.0726821265
 H          3.8313717057       -2.5557375991        1.4312618906
 H          2.1041284792       -2.4494649781        1.8284489420
 H          6.5985344254       -1.4775535533       -1.2351539571
 H          5.2156224600       -0.5996040411       -1.8901919947
 H          6.0268032090        0.1844453045        0.3484163553
 H          5.5311856373       -1.3680546845        1.0444546957
 O          3.9242797939        1.2672286290        0.1869278691
 C          2.7467078395        2.0084007355        0.2607002281
 O          2.8837200053        3.1915333827       -0.1001992445
 O          0.5708728907       -0.6169950749        1.4744445014
 C          0.2631912039        2.0730865964        0.8560782858
 C         -0.5600205136        1.7853272237       -0.3734055577
 C         -0.0448228531        2.0147405438       -1.6461399937
 C         -0.7970383412        1.7205713858       -2.7677805275
 C         -2.0647583327        1.1783883044       -2.6433956374
 C         -2.5858746945        0.9413002152       -1.3766988318
 C         -1.8331902322        1.2514655321       -0.2511590315
 H         -2.2497558749        1.0664764369        0.7268668610
 N         -3.8694102102        0.4061926965       -1.2255355853
 S         -4.2873496414       -0.5232214756        0.0946386357
 O         -5.4829951718       -1.2171653556       -0.3356951202
 O         -4.4372435620        0.3129546497        1.2597360212
 C         -2.9744501508       -1.7048436030        0.3391844139
 C         -2.5444066952       -2.4507286982       -0.7403103243
 C         -1.5645724914       -3.4088353098       -0.5421906329
 C         -1.0401296415       -3.6099697166        0.7254838968
 C         -1.4814052970       -2.8525306482        1.7972755731
 C         -2.4570588436       -1.8888330293        1.6038518809
 H         -2.8196457902       -1.2725744809        2.4110566603
 H         -1.0638930664       -2.9998291783        2.7798696721
 H         -0.2786253122       -4.3586699369        0.8783164376
 H         -1.2112889025       -3.9956215073       -1.3754400468
 H         -2.9769272822       -2.2813131492       -1.7131785684
 H         -4.3195720516        0.1009922143       -2.0749276555
 H         -2.6484520440        0.9423989814       -3.5198934964
 H         -0.3902291027        1.9070504035       -3.7502894629
 H          0.9498739982        2.4261603319       -1.7409871306
 H         -0.2403626906        1.5800280704        1.7038521932
 C          0.3569493646        3.5534135935        1.1877575121
 C         -0.0319230673        4.6403659250        0.2355945925
 C         -0.9009911760        4.3384476300        1.4172246268
 H         -0.9311500500        5.0429282377        2.2346233620
 H         -1.8394180299        3.8353745511        1.2335603223
 H          0.5603951651        5.5425150184        0.2412391614
 H         -0.3899789382        4.3621386756       -0.7430052394
 H          1.1919955372        3.7713223766        1.8448078087
