  62
        -98.94393652
 C          1.8264322121        1.1392319198        0.2392198725
 C          2.1488821727        0.1232876923       -0.6921815704
 C          3.5755363039       -0.0081133497       -1.0245529351
 C          4.4650833951        0.8302705379       -0.4620385182
 C          5.9504207042        0.7699368857       -0.6683989107
 C          6.6217065261       -0.1165147388        0.3900863156
 C          5.9535564558       -1.4799485601        0.5680112130
 H          6.5284543432       -2.0288466163        1.3170109354
 H          4.9500214899       -1.3360914639        0.9750574778
 C          5.8610816394       -2.3140839131       -0.7172863675
 H          6.5627750819       -1.9311531852       -1.4591770992
 H          6.1567716592       -3.3406680953       -0.4908592645
 C          4.4614034625       -2.3798568794       -1.3316674852
 H          3.7370953104       -2.6744506845       -0.5675955369
 H          4.4621952562       -3.1600560737       -2.0977205706
 C          3.9616878267       -1.0895486732       -1.9938201243
 H          4.7084383744       -0.7258608305       -2.7027370528
 H          3.0503889534       -1.3332126015       -2.5483353634
 H          7.6675856518       -0.2558313587        0.1108467020
 H          6.5922784740        0.4065320292        1.3486829104
 H          6.1581828535        0.3852731106       -1.6648811129
 H          6.3501687532        1.7821619862       -0.5882880843
 O          4.1126610743        1.8090574392        0.4101026581
 C          2.7920495672        1.9801500152        0.7921109210
 O          2.6087523448        2.8971059252        1.6179345976
 H         -2.0283691872        0.1294155694        0.0833591069
 C         -1.4424163341       -0.4096263009        0.8084791354
 C         -0.1986482359        0.0641893035        1.1962158528
 C          0.5273607335       -0.6604655502        2.1384032921
 C          0.0338820101       -1.8422286127        2.6544226791
 C         -1.1966604051       -2.3253302637        2.2454255149
 C         -1.9381429593       -1.6024096028        1.3190006493
 N         -3.2104062837       -2.0435610163        0.9360302298
 S         -3.8608902857       -1.7244435571       -0.5682213811
 O         -4.9696622030       -2.6510783513       -0.6702972797
 O         -2.8813069492       -1.7959621651       -1.6256715753
 C         -4.5117688501       -0.0722850188       -0.4346506492
 C         -5.1254238233        0.3169280644        0.7395674970
 C         -5.6698193899        1.5886341394        0.8200195020
 C         -5.6016217553        2.4421027525       -0.2706169918
 C         -4.9875238427        2.0342066839       -1.4446757488
 C         -4.4358390203        0.7650859803       -1.5297142297
 H         -3.9367719441        0.4115949832       -2.4184014762
 H         -4.9355350961        2.6981909467       -2.2932428907
 H         -6.0268086178        3.4311710955       -0.2061301038
 H         -6.1465931441        1.9101444100        1.7318938425
 H         -5.1622020237       -0.3718037936        1.5667490260
 H         -3.4744227558       -2.9550140114        1.2790749049
 H         -1.5799296354       -3.2540557861        2.6398350082
 H          0.6132819516       -2.3972092168        3.3771155453
 H          1.4924634736       -0.2860215218        2.4529730296
 C          0.3834090604        1.3493876460        0.6610711010
 H          0.4129655146        2.0790939185        1.4839597603
 C         -0.4135085146        1.9433560457       -0.4818638471
 C         -1.5652553845        2.8588402301       -0.1975656350
 C         -0.2901481857        3.4105557115       -0.7588681669
 H         -0.2765769293        3.7413910557       -1.7864715842
 H          0.3546998824        3.9825124595       -0.1074386182
 H         -2.4321467955        2.8123219098       -0.8389714484
 H         -1.7936024714        3.0652444189        0.8370053289
 H         -0.4834517553        1.2752993294       -1.3336971669
 O          1.2936454850       -0.6364269367       -1.2181187626
