  62
        -98.92959749
 C         -2.2425979604       -0.6340547572        0.8273465613
 C         -3.4182821030       -0.9772821784        0.1191931144
 C         -4.5499929806       -0.0265081509        0.2048950131
 C         -4.4049228990        1.1010967299        0.9233767741
 C         -5.3904843521        2.2233800843        1.1159844687
 C         -5.5032380309        3.1340712235       -0.1169294052
 C         -5.5885268385        2.3993646673       -1.4520197236
 H         -5.5610993144        3.1504365382       -2.2459304053
 H         -4.7041825260        1.7706972630       -1.5709332938
 C         -6.8448554934        1.5546856595       -1.6503682380
 H         -7.7251317927        2.1945462422       -1.5573642607
 H         -6.8191883987        1.1721397839       -2.6738464085
 C         -7.0061718458        0.3631948186       -0.7037226413
 H         -7.7880370170       -0.2788049177       -1.1198197158
 H         -7.3573351865        0.6816073717        0.2740791908
 C         -5.7614181792       -0.5063378018       -0.5587957961
 H         -6.0498315614       -1.4520392984       -0.0843737405
 H         -5.4005814423       -0.7848935940       -1.5552577104
 H         -6.3786983586        3.7738795707        0.0066805437
 H         -4.6180894954        3.7744549216       -0.1450986541
 H         -6.3617882374        1.8241437093        1.3924444000
 H         -5.0243094055        2.8186411339        1.9554890900
 O         -3.2455452465        1.3970418128        1.5813915078
 C         -2.1557780754        0.5525952563        1.5585157550
 O         -1.1807045728        0.9544914417        2.2281995997
 H          1.6327336598       -0.9043649680        0.9169731191
 C          1.2440318609       -0.9213115127       -0.0901315617
 C         -0.0964455059       -1.2024057817       -0.3105604274
 C         -0.5786436374       -1.1954537748       -1.6161756790
 C          0.2672279419       -0.9090411615       -2.6715272243
 C          1.6019673535       -0.6211873355       -2.4472513712
 C          2.0954789716       -0.6306942684       -1.1476309504
 N          3.4589515478       -0.3881098738       -0.9043160935
 S          3.9127229974        0.4663241883        0.4803362914
 O          3.8170127334       -0.4112247380        1.6193122544
 O          3.1852868722        1.7135696503        0.5568287058
 C          5.6293559494        0.7698810088        0.1050513625
 C          6.5305852323       -0.2661761852        0.2636776141
 C          7.8629691467       -0.0485035282       -0.0483346873
 C          8.2701598169        1.1942350377       -0.5109892377
 C          7.3548312062        2.2247138310       -0.6629803024
 C          6.0200311124        2.0132485094       -0.3541074537
 H          5.2742718807        2.7863525450       -0.4482088779
 H          7.6747850866        3.1906082448       -1.0192834009
 H          9.3080124183        1.3615810052       -0.7519212978
 H          8.5779697968       -0.8464052794        0.0711614876
 H          6.1695396694       -1.2107303085        0.6354865834
 H          3.9345490465       -0.0222426397       -1.7188418013
 H          2.2589659172       -0.3933820982       -3.2729349765
 H         -0.1178899696       -0.9048598448       -3.6801896872
 H         -1.6193065285       -1.4218666665       -1.7910276995
 C         -1.0002870627       -1.5088629576        0.8562276769
 H         -0.4621628129       -1.2094672211        1.7708387241
 C         -1.3173873651       -2.9935035680        0.9866567368
 C         -1.0480865781       -3.9985694926       -0.0885368361
 C         -0.1962398860       -3.9783552914        1.1424368309
 H         -0.3022704759       -4.7739320823        1.8643687090
 H          0.8102858381       -3.5966220522        1.0503583363
 H         -1.7641256283       -4.7962212821       -0.2134252672
 H         -0.6146408602       -3.6539139162       -1.0136996535
 H         -2.2012089380       -3.1645425794        1.5927780376
 O         -3.5479729660       -2.0229824945       -0.5671720328
