  62
        -98.94485522
 C         -2.0908151707        0.9955655116       -0.4930015795
 C         -2.1843939978        0.2341282758        0.6977307258
 C         -2.8611580889       -1.0631492388        0.5710253246
 C         -3.2800118077       -1.4867163388       -0.6347205342
 C         -3.9584818560       -2.7972176917       -0.9285591576
 C         -5.4719473266       -2.7900114061       -0.6721181452
 C         -5.8830297680       -2.7799304006        0.8007439480
 H         -5.3683481044       -3.5856163156        1.3251044536
 H         -6.9520580103       -2.9986533734        0.8355577239
 C         -5.6278282097       -1.4484857566        1.5208053687
 H         -6.5091219558       -1.1762031248        2.1056610005
 H         -5.4764351475       -0.6582298681        0.7820392282
 C         -4.4360158726       -1.4640958253        2.4781119347
 H         -4.6334360980       -2.1574757922        3.2984843563
 H         -4.3230106027       -0.4631719741        2.9019328196
 C         -3.1047342700       -1.8525594104        1.8214577225
 H         -3.0869379766       -2.9209482242        1.6063088073
 H         -2.2942150511       -1.6242309292        2.5181421473
 H         -5.8836718325       -3.6891577464       -1.1362182462
 H         -5.9071011335       -1.9253557050       -1.1784456481
 H         -3.4907899784       -3.5895901609       -0.3430449819
 H         -3.7890164498       -3.0036729373       -1.9877414991
 O         -3.1055135022       -0.7548222052       -1.7685278951
 C         -2.5187103981        0.4994542448       -1.7236016424
 O         -2.4254023661        1.0615062447       -2.8357404399
 O         -1.7325319127        0.6128409843        1.8085391851
 C         -1.4189738001        2.3592995249       -0.4799659172
 C          0.0402456202        2.1657284176       -0.1448399424
 C          0.6760970504        2.7515221279        0.9404555356
 C          2.0073883005        2.4748033603        1.2035841880
 C          2.7297224665        1.6173435393        0.3940835750
 C          2.1039989640        1.0334166060       -0.7000065558
 C          0.7747210112        1.3147864134       -0.9630507114
 H          0.2852595666        0.8516487966       -1.8124201440
 N          2.8350500035        0.1460571596       -1.5259619668
 S          3.1792297068       -1.3398472294       -0.8064243838
 O          3.4503848118       -2.2431796746       -1.9043009558
 O          2.1316108785       -1.7394045190        0.1072631785
 C          4.6875164115       -1.0268648805        0.0838553436
 C          5.8166254026       -0.7027430609       -0.6431141161
 C          6.9968562584       -0.4450552885        0.0356355487
 C          7.0274714039       -0.5174200965        1.4206113269
 C          5.8856731303       -0.8472229604        2.1349205879
 C          4.7010025660       -1.1049540722        1.4624279143
 H          3.7857652067       -1.3577305047        1.9736333490
 H          5.9111445975       -0.9028347479        3.2113069466
 H          7.9469122799       -0.3153942236        1.9469926681
 H          7.8868113130       -0.1881288435       -0.5158087542
 H          5.7473153716       -0.6631549208       -1.7173103052
 H          2.3708701579       -0.0284589673       -2.4075490279
 H          3.7652956604        1.3991028576        0.5976659625
 H          2.4878571392        2.9315522259        2.0551583618
 H          0.1258615140        3.4124604639        1.5893252538
 H         -1.4821501232        2.7374875202       -1.5106266728
 C         -2.1441313571        3.3175082558        0.4390949699
 C         -2.0148024480        4.7950671812        0.2266170139
 C         -3.3023599824        4.1009156750       -0.0985187699
 H         -4.1553207112        4.2649333125        0.5426840157
 H         -3.5601127924        3.9575567286       -1.1380936864
 H         -1.9858630745        5.4402048868        1.0914009647
 H         -1.3985201935        5.1288564009       -0.5943749040
 H         -2.2198952211        2.9486079063        1.4547874720
