  62
        -98.94092683
 C         -1.9315011254       -0.2837866103        0.1954843209
 C         -3.0387204741       -0.9161906635        0.8200683557
 C         -4.2895069075       -0.1485348247        0.8661216229
 C         -4.3065807504        1.1058375531        0.3811279958
 C         -5.5215893631        1.9840366692        0.3154085392
 C         -6.2583896637        1.8117362397       -1.0204210455
 C         -6.5132464177        0.3535213302       -1.4024613161
 H         -7.0638452976        0.3561554334       -2.3456919299
 H         -5.5561041935       -0.1379600921       -1.5916307147
 C         -7.2969087436       -0.4498247715       -0.3549889202
 H         -7.8057638878        0.2306311212        0.3286939715
 H         -8.0669986986       -1.0323411043       -0.8650874056
 C         -6.4512013906       -1.4380273884        0.4504885194
 H         -7.1292580629       -2.0972667322        0.9989237780
 H         -5.8695549416       -2.0631612967       -0.2319044213
 C         -5.4914416620       -0.8161035368        1.4727316657
 H         -5.1014834465       -1.6247596891        2.0978251297
 H         -6.0368622954       -0.1198444395        2.1130224573
 H         -7.2085527335        2.3457508493       -0.9619136832
 H         -5.6581777692        2.2723398322       -1.8086634408
 H         -6.1853102117        1.7402818275        1.1427724598
 H         -5.2009722540        3.0227105749        0.4125199638
 O         -3.2128890065        1.7034853170       -0.1519898361
 C         -2.0014676129        1.0297171967       -0.2728522197
 O         -1.1056979124        1.7121628328       -0.8023542558
 O         -2.9819583507       -2.0724262803        1.3166842721
 C         -0.6379532555       -1.0770295940        0.1188204398
 C          0.5116382737       -0.2595926817        0.6465433799
 C          0.6713731998       -0.1158714342        2.0211937425
 C          1.7061340180        0.6409576406        2.5389864550
 C          2.6000833118        1.2760302325        1.6952053801
 C          2.4432884074        1.1454782477        0.3221156705
 C          1.4153714993        0.3695456489       -0.1955000211
 H          1.2949234905        0.2888206622       -1.2645566308
 N          3.3524987214        1.7919378222       -0.5401725022
 S          4.9634540225        1.3723659144       -0.3640381199
 O          5.4946499509        1.9946399794        0.8221816630
 O          5.5996379849        1.7306007601       -1.6116867848
 C          4.9270259162       -0.3990996983       -0.1618975279
 C          5.0050520329       -0.9463419098        1.1025289722
 C          4.8783458540       -2.3188977665        1.2461112015
 C          4.6724456134       -3.1146837348        0.1300213158
 C          4.6005163028       -2.5497840190       -1.1343882572
 C          4.7229466563       -1.1781236223       -1.2836734435
 H          4.6775298247       -0.7014042071       -2.2498899738
 H          4.4436038788       -3.1720161933       -2.0009845351
 H          4.5687158620       -4.1821428352        0.2452139104
 H          4.9349891131       -2.7615021927        2.2275013042
 H          5.1672959735       -0.2929140242        1.9436573827
 H          3.0780368503        1.7469389549       -1.5108647977
 H          3.4122497177        1.8738574728        2.0766798743
 H          1.8160560154        0.7420065622        3.6080983540
 H         -0.0330360039       -0.6018508299        2.6821415359
 H         -0.8001644646       -1.9194315982        0.8104971836
 C         -0.3498957294       -1.6894785541       -1.2442480726
 C         -1.4644658777       -2.2451226583       -2.0779608088
 C         -0.7194686052       -1.0294595012       -2.5374603915
 H         -0.0423696646       -1.1316549513       -3.3734181085
 H         -1.2153372150       -0.0723472105       -2.4958030403
 H         -1.3065190471       -3.1768934715       -2.5995227145
 H         -2.4714427799       -2.1161250496       -1.7083964439
 H          0.5770356252       -2.2552372618       -1.2381000261
