  62
        -98.94360643
 C          0.9676443280        0.9134013560        0.9334000797
 C          1.3790025661        0.8123710624       -0.4196550038
 C          2.0530533794       -0.4407377470       -0.7876883286
 C          2.1962924620       -1.4217831097        0.1198411367
 C          2.8321635138       -2.7653501676       -0.1168736977
 C          4.3633072702       -2.7613381733       -0.0087110444
 C          5.0980344485       -2.0865674191       -1.1677148910
 H          6.1534205037       -2.3502079353       -1.0745754696
 H          4.7412957161       -2.4995368378       -2.1118612797
 C          4.9726044880       -0.5568158499       -1.1939151316
 H          4.6339924742       -0.2020788795       -0.2178425881
 H          5.9546137294       -0.1134244876       -1.3728822151
 C          4.0292132486       -0.0169384741       -2.2692569457
 H          4.4272641981       -0.2515661788       -3.2590420463
 H          3.9850419842        1.0710373823       -2.1740935110
 C          2.5968179998       -0.5589139776       -2.1783614949
 H          1.9531790338        0.0344998881       -2.8331988660
 H          2.5622546859       -1.5959170635       -2.5136431769
 H          4.6454469922       -2.2800156419        0.9304305725
 H          4.6880651043       -3.8032151904        0.0404461294
 H          2.4362918832       -3.4375099624        0.6476977651
 H          2.5344112303       -3.1422667073       -1.0963903023
 O          1.7395051306       -1.3081455643        1.3960248332
 C          1.1129130573       -0.1489548671        1.8278332750
 O          0.7256697686       -0.1921186362        3.0124864349
 H         -1.5565921443        0.4120541754        0.5213492976
 C         -1.7353671832        1.3930498738        0.1051687498
 C         -0.9063142858        2.4444382050        0.4768815969
 C         -1.1509382745        3.7017793924       -0.0571606156
 C         -2.1875252296        3.8859982450       -0.9566709719
 C         -2.9829103922        2.8272293681       -1.3546091517
 C         -2.7468116007        1.5645340161       -0.8226787153
 N         -3.5244959950        0.4531684096       -1.1891392414
 S         -2.7556607910       -1.0136950783       -1.4484498861
 O         -1.4419898755       -0.8459880953       -2.0230659448
 O         -3.7011585599       -1.7731049516       -2.2417650284
 C         -2.6363792711       -1.7577723637        0.1637643234
 C         -3.7600971301       -1.8056561678        0.9643894476
 C         -3.6629332990       -2.3960604768        2.2142557979
 C         -2.4534983507       -2.9259215245        2.6383372367
 C         -1.3362476531       -2.8765357682        1.8192193328
 C         -1.4279561905       -2.2893563289        0.5679068767
 H         -0.5795131441       -2.2123925970       -0.0959119779
 H         -0.3909524013       -3.2732914117        2.1539304623
 H         -2.3757678485       -3.3768993741        3.6149364985
 H         -4.5276560733       -2.4373199179        2.8567985935
 H         -4.6803451566       -1.3797426976        0.6010100689
 H         -4.2163167656        0.6369968164       -1.9018558955
 H         -3.7725517600        2.9703997871       -2.0766731957
 H         -2.3656641732        4.8671091330       -1.3705200241
 H         -0.5178037385        4.5323796218        0.2083305453
 C          0.2068977216        2.1257958403        1.4454491115
 H         -0.2596013876        1.7856877909        2.3854109951
 C          1.0731837630        3.3235579154        1.8040141810
 C          2.5248899972        3.1547737182        2.1376927830
 C          2.1226630777        3.8620037077        0.8803287431
 H          2.2600334846        4.9325201677        0.8304616653
 H          2.2593440430        3.3585362135       -0.0631316544
 H          2.9359057538        3.7356474644        2.9498170144
 H          2.9442651043        2.1623731486        2.0541624975
 H          0.5298838031        4.0518432915        2.3983053088
 O          1.2043516666        1.7116831012       -1.2809198812
