  62
        -98.94487773
 C         -2.6402860679       -0.3126148832        0.0021675082
 C         -2.4533574575       -1.4304055118       -0.8440977769
 C         -1.7732437801       -2.5816369809       -0.2434061117
 C         -1.3774671785       -2.5254101952        1.0416263298
 C         -0.6241785568       -3.5975229115        1.7804913808
 C          0.8911063250       -3.5412490193        1.5364749635
 C          1.3469698372       -4.0600101137        0.1711623546
 H          0.8965336104       -5.0354270606       -0.0175851546
 H          2.4277316963       -4.2049543827        0.2291161367
 C          1.0385720204       -3.1101121293       -0.9949974970
 H          1.9155475065       -3.0329225687       -1.6433405239
 H          0.8412979735       -2.1110386958       -0.5969376381
 C         -0.1314046227       -3.5450645117       -1.8784096403
 H          0.1239265575       -4.4762042099       -2.3897149571
 H         -0.2913846566       -2.7763635905       -2.6392013993
 C         -1.4542840857       -3.7490200450       -1.1292500317
 H         -1.4189547839       -4.6683693755       -0.5456170206
 H         -2.2552742174       -3.8325606732       -1.8682783975
 H          1.3711960600       -4.1425426184        2.3122833627
 H          1.2204883921       -2.5057706061        1.6596439963
 H         -1.0077229075       -4.5810767652        1.5068572346
 H         -0.8095693227       -3.4326260175        2.8439430789
 O         -1.6294868528       -1.4554296045        1.8401790009
 C         -2.2111825344       -0.3064425366        1.3307518515
 O         -2.3120798393        0.6269556887        2.1510726031
 O         -2.8161442109       -1.4540047527       -2.0526312508
 C         -3.1715514789        0.9807437221       -0.5941802249
 C         -2.0688237426        2.0072887943       -0.4912477419
 C         -2.2328795796        3.2871110666        0.0204253141
 C         -1.1394791993        4.1201251629        0.1952637749
 C          0.1380449780        3.6938273590       -0.1206901641
 C          0.3045516623        2.4289862893       -0.6643992977
 C         -0.7911525169        1.6108215826       -0.8676550880
 H         -0.6435512006        0.6176745698       -1.2757450709
 N          1.6209392781        1.9402423802       -0.9196534743
 S          2.1720709162        1.1447149190        0.4782862479
 O          1.4191721227       -0.0721962476        0.6930918436
 O          2.1761455099        2.1028577460        1.5539799472
 C          3.8481973701        0.7480835240        0.0162642848
 C          4.1896446082       -0.5569228576       -0.2797507108
 C          5.4918371117       -0.8376659931       -0.6640787990
 C          6.4222260333        0.1866767266       -0.7488832328
 C          6.0630302631        1.4927708363       -0.4493895668
 C          4.7638608690        1.7797569677       -0.0631380646
 H          4.4389924400        2.7759535633        0.1863875161
 H          6.7898753014        2.2861231787       -0.5155838786
 H          7.4344411996       -0.0346809586       -1.0483790397
 H          5.7734765715       -1.8523604428       -0.8952658449
 H          3.4335697471       -1.3213632331       -0.1953874307
 H          1.6013672612        1.2428818157       -1.6554939246
 H          1.0021712630        4.3103529777        0.0638814418
 H         -1.2835794423        5.1061085535        0.6103655687
 H         -3.2150372638        3.6242711158        0.3099055696
 H         -3.3561314433        0.7629739589       -1.6567764603
 C         -4.4693758229        1.4085181163        0.0531568269
 C         -5.4475319185        2.2515502187       -0.7082283477
 C         -5.7540224784        0.8108195353       -0.4344013848
 H         -6.5177598770        0.5718687002        0.2901407291
 H         -5.6939508900        0.1087020202       -1.2530675813
 H         -6.0057466022        3.0036938081       -0.1717381478
 H         -5.1866856210        2.5305562251       -1.7178549787
 H         -4.3656876120        1.5748502906        1.1194116905
