  62
        -98.94485113
 C         -1.8210596358       -0.7372740520       -0.2202512798
 C         -2.3678210683       -0.1419186739        0.9411422576
 C         -3.4099250533        0.8652688746        0.7140888837
 C         -3.7554684501        1.1953116375       -0.5438815674
 C         -4.7819020698        2.2227325565       -0.9376564445
 C         -6.2238263041        1.6966014562       -0.9379079387
 C         -6.8305079068        1.4580857460        0.4454866563
 H         -6.7097151500        2.3553253863        1.0534429867
 H         -7.9018667421        1.3038117493        0.3025930616
 C         -6.2526527346        0.2466168151        1.1904248261
 H         -7.0682097622       -0.3409582911        1.6178044105
 H         -5.7289959928       -0.4001946208        0.4827344862
 C         -5.3018835480        0.6004723526        2.3338708256
 H         -5.8485418723        1.1359966695        3.1131962203
 H         -4.9242837652       -0.3297186899        2.7659342847
 C         -4.0965107058        1.4503530579        1.9113084062
 H         -4.4101766132        2.4743578983        1.7090402818
 H         -3.3781753365        1.4603456894        2.7349298953
 H         -6.2571034676        0.7699553917       -1.5155367841
 H         -6.8388498118        2.4344426532       -1.4583037714
 H         -4.7088565013        3.0870284966       -0.2766253006
 H         -4.5306476229        2.5394183571       -1.9523351830
 O         -3.1750184940        0.6302656720       -1.6359302089
 C         -2.2072087071       -0.3570766148       -1.5058327082
 O         -1.7754556265       -0.7975647947       -2.5872494976
 H          0.3440330948        0.6185254434        0.0869830517
 C          0.9620365238       -0.0496533929       -0.5002035538
 C          0.5412578051       -1.3590245309       -0.7002787548
 C          1.3543228100       -2.2066302358       -1.4411641758
 C          2.5394063747       -1.7435783754       -1.9877525208
 C          2.9424915577       -0.4342653857       -1.8048477692
 C          2.1431414387        0.4186691794       -1.0536697672
 N          2.5480824363        1.7501363387       -0.8501095928
 S          4.1265046653        2.0074648789       -0.3537131013
 O          4.1012725259        3.2660173506        0.3578694543
 O          5.0079663637        1.9457673700       -1.4925808224
 C          4.4817076716        0.6613006722        0.7614543164
 C          3.7427233206        0.5732797541        1.9247420299
 C          3.9688309727       -0.4892856889        2.7840280639
 C          4.9243037674       -1.4424714103        2.4654043423
 C          5.6610126839       -1.3374958556        1.2960518993
 C          5.4378453536       -0.2772975363        0.4319094332
 H          5.9862043533       -0.1581574011       -0.4880522171
 H          6.4043731542       -2.0792518910        1.0526160618
 H          5.0947724433       -2.2707364420        3.1348746998
 H          3.3956165141       -0.5716926684        3.6936672046
 H          3.0104831025        1.3337041740        2.1458017368
 H          1.9011535591        2.2921492885       -0.2966478991
 H          3.8540045716       -0.0541667177       -2.2366524801
 H          3.1558939012       -2.4118226440       -2.5690794764
 H          1.0567408794       -3.2301106595       -1.5983953151
 C         -0.7532081028       -1.8032691853       -0.0638033922
 H         -0.5841729096       -1.8867693703        1.0206959280
 C         -1.2556567507       -3.1353729212       -0.5806996575
 C         -0.7821852160       -4.4165468271        0.0363584843
 C         -2.1814096460       -3.9398260816        0.2805302635
 H         -2.9985189059       -4.4654419158       -0.1905007695
 H         -2.4247608590       -3.5399669559        1.2542740022
 H         -0.6402438186       -5.2747959971       -0.6030085702
 H         -0.0762304873       -4.3492101453        0.8500573560
 H         -1.4521427775       -3.1189960128       -1.6468588492
 O         -1.9937748357       -0.4300025846        2.1103009910
