  62
        -98.93810595
 C         -1.9135552007       -0.8083372099        0.2421210604
 C         -2.4101528006        0.3985981201       -0.3004678199
 C         -3.8058401706        0.7415653903        0.0312610500
 C         -4.5242149307       -0.0851501196        0.8139110900
 C         -5.9369319607        0.0251792607        1.3486352699
 C         -6.9213613506        1.0307659206        0.7572789696
 C         -7.3406636505        0.7443386204       -0.6839848204
 H         -7.9666862704        1.5708196004       -1.0275327506
 H         -7.9513159006       -0.1620361595       -0.6950296603
 C         -6.1973279704        0.5418681702       -1.6751539402
 H         -6.6372886704        0.3526270901       -2.6581087602
 H         -5.6277023505       -0.3485653798       -1.4015531700
 C         -5.2368376103        1.7213583701       -1.8156799503
 H         -5.7991336902        2.6281039501       -2.0470393605
 H         -4.5795645302        1.5105962699       -2.6635749902
 C         -4.3412681804        1.9968287502       -0.5948395703
 H         -4.8559926704        2.6054249904        0.1449539296
 H         -3.4699916003        2.5641138201       -0.9355804003
 H         -6.5292576305        2.0396519506        0.8459101095
 H         -7.8209490307        0.9858000208        1.3772969296
 H         -6.3629509408       -0.9801361093        1.2704330900
 H         -5.8333779308        0.2326018408        2.4195698799
 O         -3.9935725708       -1.2354593495        1.3242419703
 C         -2.6938784409       -1.6247185497        1.0588339305
 O         -2.3551910510       -2.6962968196        1.5998350307
 H          1.4342124095        0.2412039196       -1.3621600295
 C          1.3874223594        0.4543580197       -0.3058660995
 C          0.4682386993       -0.2033505300        0.4947601505
 C          0.4353400292        0.1001902602        1.8536004304
 C          1.2928076093        1.0396987702        2.3927638004
 C          2.2069014294        1.6985092000        1.5877205603
 C          2.2464443595        1.4033169798        0.2335176404
 N          3.2057554496        2.0463750395       -0.5823606696
 S          4.7908138595        1.6142233895       -0.2426072394
 O          5.1873556795        2.2163233296        1.0040435505
 O          5.5608528097        1.9855754492       -1.4078859594
 C          4.7169833394       -0.1602863605       -0.0747433991
 C          4.5388837792       -0.7148162003        1.1765296809
 C          4.3716599091       -2.0862330403        1.2824476812
 C          4.3816625791       -2.8738663304        0.1417561213
 C          4.5649182293       -2.3018514307       -1.1079982988
 C          4.7280123694       -0.9308548607       -1.2203646190
 H          4.8767478995       -0.4481405009       -2.1730097991
 H          4.5732079093       -2.9186826608       -1.9922927487
 H          4.2454368190       -3.9406700304        0.2272649715
 H          4.2271604790       -2.5340386601        2.2525170412
 H          4.5371993392       -0.0683525801        2.0385892508
 H          3.0277520197        1.9198946394       -1.5691791396
 H          2.8946546094        2.4252181200        1.9890891303
 H          1.2510896392        1.2627881704        3.4482250003
 H         -0.2785826709       -0.4149426797        2.4822755005
 C         -0.4858201907       -1.2446956501       -0.0356979894
 H         -0.3347078609       -2.1656748000        0.5448880908
 C         -0.2959764206       -1.5587380103       -1.5045017293
 C          0.8335427293       -2.4447393605       -1.9356262991
 C         -0.5775633607       -2.9462675104       -1.9931132991
 H         -1.0444418706       -3.0670238605       -2.9592163592
 H         -0.8952584008       -3.6752250102       -1.2619784790
 H          1.4825145492       -2.8336377404       -1.1656344890
 H          1.3355077994       -2.2254843907       -2.8659154391
 H         -0.5790176505       -0.7351926504       -2.1499724295
 O         -1.7239158504        1.1642688099       -1.0268800599
