  62
        -98.93677912
 C         -2.4879445267       -0.6616193773        0.2589536778
 C         -2.5924570767        0.3902047850        1.2166873792
 C         -2.6296888762        1.7609481271        0.7055746889
 C         -2.6204145408        1.9729890601       -0.6212454915
 C         -2.6147377616        3.3095268737       -1.3095901962
 C         -1.2069941124        3.9094080168       -1.4370705469
 C         -0.6183349803        4.4627070364       -0.1382543572
 H          0.2517592706        5.0620433651       -0.4137663985
 H         -1.3406528701        5.1307381646        0.3330065810
 C         -0.1746497844        3.3865324448        0.8630234031
 H         -0.0644598218        2.4315350818        0.3413080090
 H          0.8110314766        3.6464907910        1.2574068842
 C         -1.1082874449        3.2105071886        2.0620503038
 H         -1.0992452217        4.1202073945        2.6669706402
 H         -0.7252242478        2.3914046535        2.6759902647
 C         -2.5618918245        2.8838545083        1.6957476176
 H         -3.0803269848        2.5621564297        2.6022679953
 H         -3.0602007471        3.7686961932        1.3008412221
 H         -0.5368999945        3.1436161697       -1.8383034973
 H         -1.2608638684        4.7223357895       -2.1654446376
 H         -3.0149818910        3.1490932719       -2.3130808739
 H         -3.2662154373        4.0051869591       -0.7798386255
 O         -2.6173758951        0.9499475570       -1.5087674830
 C         -2.4661465797       -0.3709574475       -1.1072211392
 O         -2.3525736480       -1.1451604158       -2.0805663159
 O         -2.6337374964        0.1875485266        2.4601042361
 C         -2.2254392629       -2.0282387085        0.8812838871
 C         -0.7318915654       -2.2720034507        0.8769143220
 C         -0.0376314705       -2.5211339095        2.0561934320
 C          1.3447005566       -2.5959296618        2.0633843690
 C          2.0669185528       -2.3806471863        0.9016886896
 C          1.3794368565       -2.1438396663       -0.2795667160
 C         -0.0045990114       -2.1322029146       -0.2955914842
 H         -0.5156456222       -1.9420894885       -1.2263123347
 N          2.1083221913       -1.7890341282       -1.4517693143
 S          2.2660224233       -0.1042470122       -1.5162375598
 O          1.0408705425        0.5692391768       -1.1434615935
 O          2.7801577428        0.1965460305       -2.8352009655
 C          3.5178765137        0.1912319323       -0.2888873213
 C          4.8294422381       -0.1130042006       -0.5973300230
 C          5.8033582203        0.0713123057        0.3709680719
 C          5.4494494545        0.5499079286        1.6239378550
 C          4.1279479824        0.8508151602        1.9170581819
 C          3.1489385135        0.6690078292        0.9527685089
 H          2.1082853401        0.8864627597        1.1370069387
 H          3.8530922815        1.2217181115        2.8913642701
 H          6.2080271669        0.6900948173        2.3777493966
 H          6.8322264463       -0.1603468231        0.1473979537
 H          5.0552481473       -0.4787064968       -1.5852160168
 H          1.6305277187       -2.0787844490       -2.2961053707
 H          3.1447382834       -2.3871092315        0.9021806624
 H          1.8663210060       -2.7888740964        2.9879628103
 H         -0.5907560880       -2.6247150395        2.9783322026
 H         -2.5133012386       -1.8735599119        1.9334994537
 C         -3.0031437248       -3.2605927218        0.4410032326
 C         -4.3048019132       -3.1933624089       -0.2951465723
 C         -3.1008452367       -3.7993795699       -0.9520395763
 H         -3.0684190793       -4.8718125070       -1.0793750424
 H         -2.6455654808       -3.2407388979       -1.7517110509
 H         -5.1145107650       -3.8350907174        0.0188338534
 H         -4.6223015439       -2.2242636417       -0.6522460868
 H         -2.9468504954       -4.0224400503        1.2146583592
