  62
        -98.94443441
 C          1.9470893588        1.0837493819       -0.2087040921
 C          2.4386915035       -0.0812717791       -0.8447912817
 C          3.8950827830       -0.2754470704       -0.7822365620
 C          4.6589454894        0.6467401581       -0.1685483023
 C          6.1456426045        0.5475835476        0.0111129782
 C          6.5003247268       -0.1392052933        1.3374598817
 C          5.7489468214       -1.4491742089        1.5749081334
 H          6.1013839150       -1.8588321078        2.5239841581
 H          4.6843959974       -1.2342665754        1.6928179233
 C          5.9322062113       -2.4958962307        0.4671711578
 H          6.1186295428       -3.4671168170        0.9303523188
 H          6.8086681562       -2.2503846837       -0.1336533117
 C          4.7205170808       -2.6662248547       -0.4513056919
 H          4.8710626277       -3.5693636808       -1.0488828461
 H          3.8210610664       -2.8193629330        0.1507552975
 C          4.4547456409       -1.5123246362       -1.4264701022
 H          5.3664568459       -1.2810935071       -1.9812340895
 H          3.6946747258       -1.8480188005       -2.1382813355
 H          6.2630606750        0.5447491613        2.1555618441
 H          7.5755391101       -0.3264563235        1.3522252730
 H          6.5706837461       -0.0074209870       -0.8228471303
 H          6.5598381399        1.5572089609        0.0128353243
 O          4.1509322611        1.7656126791        0.4086810958
 C          2.7868726492        2.0059367522        0.4154948605
 O          2.4505108550        3.0549599618        1.0011023967
 H         -1.6861871984       -0.0868281084       -1.2058186671
 C         -1.3525738529       -0.4152368852       -0.2364147894
 C         -0.2889150386        0.2058165153        0.3977323709
 C          0.1122713419       -0.2678125390        1.6452182847
 C         -0.5186701407       -1.3485501935        2.2280795115
 C         -1.5745877481       -1.9729149929        1.5864345809
 C         -1.9897223303       -1.5036189457        0.3469873763
 N         -3.0484723485       -2.1285089425       -0.3314699161
 S         -4.2449090377       -1.2163973298       -1.0582081356
 O         -5.3261526310       -2.1506735048       -1.2809622754
 O         -3.7318770573       -0.5460723874       -2.2247267838
 C         -4.7125090469       -0.0317110430        0.1897576202
 C         -4.2003080971        1.2487103496        0.1480183733
 C         -4.5219086175        2.1309067571        1.1677129441
 C         -5.3439392459        1.7195730080        2.2052055701
 C         -5.8549235778        0.4305187896        2.2298298145
 C         -5.5341043487       -0.4568209236        1.2158823273
 H         -5.9192982564       -1.4633469461        1.1920148958
 H         -6.4982937734        0.1157142526        3.0355807907
 H         -5.5896634617        2.4093059463        2.9972228554
 H         -4.1274931867        3.1344686066        1.1488374300
 H         -3.5684959669        1.5331945723       -0.6770001920
 H         -3.4458486777       -2.9187758520        0.1549666155
 H         -2.0633736986       -2.8242117875        2.0353273537
 H         -0.1885466814       -1.7091805905        3.1907009697
 H          0.9390941234        0.2194202857        2.1447261038
 C          0.4559208812        1.3720762447       -0.2041481464
 H          0.3184134884        2.2443078756        0.4515867909
 C         -0.0059157491        1.7365407795       -1.5993255001
 C         -1.1522192455        2.6815709894       -1.7918793068
 C          0.2445849473        3.1229319377       -2.1085983915
 H          0.5273335296        3.2487863127       -3.1429677298
 H          0.7267484498        3.8175641788       -1.4359272831
 H         -1.6133655056        3.0907042027       -0.9053899115
 H         -1.8363881069        2.5029228106       -2.6085793845
 H          0.1088568090        0.9218360599       -2.3056588669
 O          1.7039163642       -0.9169629813       -1.4331971658
