  62
        -98.94041118
 C          2.4400196026        1.1038424130       -0.0290498077
 C          2.3757817845       -0.2869337895        0.2265154574
 C          3.6469100738       -0.9237735835        0.5953468375
 C          4.7642558168       -0.1810065586        0.6968143912
 C          6.1295814955       -0.6823066352        1.0825492496
 C          6.9267445187       -1.2802869844       -0.0848159862
 C          6.4408593753       -2.6457117258       -0.5725428939
 H          7.2119393316       -3.0418605757       -1.2361535419
 H          6.3600887445       -3.3260355848        0.2757245558
 C          5.1079779880       -2.6094268171       -1.3333147503
 H          4.8952932590       -1.5855235637       -1.6494441381
 H          5.1888402650       -3.2133683885       -2.2399352375
 C          3.9119593327       -3.1397286560       -0.5422619356
 H          4.0519009773       -4.2027917399       -0.3335302703
 H          3.0163633202       -3.0339378379       -1.1603894167
 C          3.6583488203       -2.4106903894        0.7838557454
 H          2.6727568111       -2.7047703815        1.1539903660
 H          4.4090947681       -2.6966163086        1.5203427179
 H          6.9141218748       -0.5711680350       -0.9155864204
 H          7.9619547054       -1.3849339982        0.2477500134
 H          6.6786715434        0.1789695936        1.4688334430
 H          6.0369060506       -1.4217154611        1.8783667376
 O          4.7756868636        1.1600348369        0.4717393785
 C          3.6252513194        1.8297029548        0.0881460902
 O          3.7817306242        3.0524470447       -0.1047608704
 H         -1.4291110792        1.0113375021       -0.7770778125
 C         -1.1727586659        1.2300454357        0.2449719944
 C          0.1017116824        1.6605796704        0.5771420784
 C          0.3880456937        1.9371153760        1.9119487893
 C         -0.5710591399        1.7626444681        2.8897638606
 C         -1.8338214440        1.3037843618        2.5576931189
 C         -2.1351531293        1.0384969864        1.2275964582
 N         -3.4307704673        0.6193999567        0.8659823941
 S         -3.6365404688       -0.6280010681       -0.2546290536
 O         -3.0279094148       -1.8482863969        0.2281011057
 O         -3.2264937425       -0.1724215370       -1.5577507205
 C         -5.4140225652       -0.7744377157       -0.2087422314
 C         -6.1672993119        0.1926725318       -0.8470338225
 C         -7.5492693675        0.1038766903       -0.8014034914
 C         -8.1522679456       -0.9449567519       -0.1226790199
 C         -7.3834463357       -1.9089851608        0.5113918358
 C         -6.0002833968       -1.8246840588        0.4710688163
 H         -5.3620462993       -2.5546503866        0.9427368393
 H         -7.8547762908       -2.7247513887        1.0355616035
 H         -9.2281996721       -1.0128186921       -0.0900815683
 H         -8.1504604607        0.8503345631       -1.2949578697
 H         -5.6548788405        0.9835672450       -1.3692100322
 H         -3.9983453680        0.4225153621        1.6808206014
 H         -2.5800547015        1.1540009486        3.3236358625
 H         -0.3324136406        1.9752811439        3.9212177707
 H          1.3804189055        2.2820882235        2.1711138141
 C          1.1895375399        1.8540106371       -0.4509521361
 H          1.4629770023        2.9195258651       -0.4654566767
 C          0.7822685338        1.4381370043       -1.8489092622
 C          0.0318897711        2.3897403867       -2.7296679106
 C          1.4652958274        2.0671159717       -3.0243983280
 H          1.6915838393        1.4491446990       -3.8804290624
 H          2.2133547855        2.8187610148       -2.8169790553
 H         -0.7322707291        1.9911520184       -3.3800114900
 H         -0.1947236584        3.3660726774       -2.3286267774
 H          0.5400671360        0.3827079164       -1.9176241441
 O          1.3158838729       -0.9635731760        0.1549004136
