  62
        -98.94053032
 C         -2.3358732507        0.2604297096       -0.2412453210
 C         -3.5269458241        0.7394707453       -0.8371845335
 C         -4.7187226704       -0.0994381362       -0.6559017294
 C         -4.6107406882       -1.2554421745        0.0245579697
 C         -5.7529125632       -2.1804883904        0.3281878115
 C         -6.4017104186       -1.8368737405        1.6763667132
 C         -6.7326655894       -0.3536519846        1.8420876901
 H         -7.2130104918       -0.2344796845        2.8157054689
 H         -5.8020845156        0.2179360562        1.8713546622
 C         -7.6447651342        0.2192238718        0.7482842363
 H         -8.4157514043        0.8314488048        1.2207796100
 H         -8.1511736292       -0.5928012666        0.2253728538
 C         -6.9313395528        1.1102617831       -0.2702537277
 H         -7.6917978977        1.6314753583       -0.8578068494
 H         -6.3457446416        1.8696983081        0.2540466795
 C         -6.0071086423        0.3869350082       -1.2579580184
 H         -6.5463389387       -0.4355325533       -1.7320997720
 H         -5.7227211053        1.1044799034       -2.0331633668
 H         -5.7137241771       -2.1250102093        2.4745317842
 H         -7.3125186945       -2.4290201868        1.7820464509
 H         -6.4901706748       -2.1133509659       -0.4693779347
 H         -5.3667903623       -3.2002416646        0.3701346752
 O         -3.4433786324       -1.6951953151        0.5605960488
 C         -2.2792435213       -0.9484713077        0.4520614784
 O         -1.2871949013       -1.4630714119        1.0018165941
 H          1.5253395424        0.5517862824        0.4472306073
 C          1.2727560138        0.1114015242       -0.5022984831
 C          0.0112925569        0.2808324234       -1.0485686000
 C         -0.2674171381       -0.3089724322       -2.2796961702
 C          0.6905743660       -1.0529225667       -2.9394119947
 C          1.9512218271       -1.2167315835       -2.3920304050
 C          2.2389595424       -0.6353870940       -1.1633966311
 N          3.4988942250       -0.8127176563       -0.5696690959
 S          4.1521774916        0.4308554479        0.3636636968
 O          3.5792409030        0.3866350686        1.6851631885
 O          4.0419042790        1.6898600772       -0.3390637135
 C          5.8556838093       -0.0928816723        0.4330162414
 C          6.1975757286       -1.1038822529        1.3115789337
 C          7.5124576070       -1.5391050335        1.3529970635
 C          8.4585033486       -0.9598717278        0.5200327506
 C          8.1010815343        0.0551413938       -0.3545191421
 C          6.7871375540        0.4944010998       -0.4020480492
 H          6.4646739802        1.2852757759       -1.0599846874
 H          8.8395838156        0.5055960989       -0.9978973004
 H          9.4813358791       -1.3002903862        0.5550776866
 H          7.7944185064       -2.3261452781        2.0336921753
 H          5.4301253710       -1.5172590228        1.9452649804
 H          4.1827001543       -1.1994337682       -1.2057658803
 H          2.7012507999       -1.7974646320       -2.9071613602
 H          0.4580280758       -1.5048290016       -3.8920848299
 H         -1.2512475199       -0.1760348164       -2.7094891481
 C         -1.0689571529        1.0860363898       -0.3702131571
 H         -1.3325835004        1.9260577985       -1.0308234087
 C         -0.6565981306        1.6409656439        0.9764248419
 C          0.1711220258        2.8877556007        1.0534624156
 C         -1.2700165876        2.9181413736        1.4630471299
 H         -1.5068303250        3.0094690804        2.5124819462
 H         -1.9764106086        3.4092613092        0.8096982114
 H          0.9319365916        2.9529468298        1.8172860943
 H          0.4487249331        3.3603437255        0.1230786673
 H         -0.4721255546        0.8633729595        1.7102994665
 O         -3.5884111425        1.8140201206       -1.4937819772
