  62
        -98.94447758
 C          1.8540462133        1.0576392386       -0.1761222708
 C          2.3811309790       -0.0615069555       -0.8644968169
 C          3.8432506287       -0.1951125288       -0.8305343268
 C          4.5875283417        0.7351804576       -0.2053691856
 C          6.0888086395        0.7468447610       -0.1044285579
 C          6.6426837490       -0.1096049851        1.0426090471
 C          6.5528740594       -1.6211488343        0.8285898264
 H          6.9921790403       -1.8772203015       -0.1360274123
 H          7.1659826167       -2.0906189996        1.6004797452
 C          5.1296797791       -2.1902740490        0.9154435959
 H          4.4764227098       -1.4662215333        1.4076713090
 H          5.1339740790       -3.0897387040        1.5351793072
 C          4.5156818487       -2.5720854827       -0.4315881797
 H          3.4958019010       -2.9246160458       -0.2563496733
 H          5.0846718981       -3.3925158021       -0.8746722014
 C          4.4494909251       -1.4208368417       -1.4437993835
 H          5.4438556443       -1.2030000121       -1.8330716797
 H          3.8076711300       -1.7295688054       -2.2726817170
 H          7.6948723840        0.1558324661        1.1685171444
 H          6.1197070359        0.1595904852        1.9631605342
 H          6.5225352774        0.4173958383       -1.0489003411
 H          6.3806721674        1.7847879728        0.0693305727
 O          4.0419160825        1.8160651269        0.4136468631
 C          2.6680941199        1.9906096804        0.4654502732
 O          2.3006038573        2.9987235432        1.1022925866
 O          1.6731924905       -0.9050884030       -1.4735930043
 C          0.3521821905        1.2752701392       -0.1282593950
 C         -0.3289245576        0.0500819192        0.4301688196
 C          0.1698858450       -0.5174706504        1.6008724199
 C         -0.4018954477       -1.6539057260        2.1365874135
 C         -1.4967059097       -2.2413073122        1.5263817317
 C         -2.0119804307       -1.6756721507        0.3674511934
 C         -1.4347637900       -0.5311797509       -0.1693240355
 H         -1.8462806898       -0.1261859873       -1.0783579640
 N         -3.1183708886       -2.2514540557       -0.2732537532
 S         -4.2938105052       -1.2808190245       -0.9506234922
 O         -5.4732257865       -2.1189265020       -0.9904914514
 O         -3.8547854606       -0.7565733311       -2.2187444647
 C         -4.5303973004        0.0494228220        0.2153386823
 C         -4.8372109585       -0.2692164623        1.5238244696
 C         -5.0111274092        0.7549371685        2.4399200787
 C         -4.8790438983        2.0745115745        2.0346203807
 C         -4.5793337071        2.3781324464        0.7160761715
 C         -4.4015243384        1.3568578972       -0.2038424158
 H         -4.1626566934        1.5490187399       -1.2369792279
 H         -4.4814421451        3.4047734492        0.4004777466
 H         -5.0121481946        2.8709001980        2.7497776027
 H         -5.2475825898        0.5226650539        3.4657716926
 H         -4.9437523116       -1.3035670332        1.8071084379
 H         -3.5133550277       -3.0537979764        0.1939521366
 H         -1.9395854647       -3.1361792821        1.9362907900
 H          0.0057002057       -2.0875784414        3.0373281482
 H          1.0269248487       -0.0597143195        2.0765251425
 H          0.1862758096        2.1097140304        0.5689634181
 C         -0.1499654072        1.6795400879       -1.4985714926
 C         -1.3341519804        2.5864086419       -1.6350717945
 C          0.0398936139        3.0965118529       -1.9469022736
 H          0.3033995047        3.2809142475       -2.9776234168
 H          0.5055158975        3.7767962560       -1.2484585171
 H         -2.0159124866        2.4174271554       -2.4554729934
 H         -1.8056611440        2.9289243519       -0.7265524512
 H         -0.0146400754        0.8996445286       -2.2398300911
