  62
        -98.94266561
 C         -1.9457638941       -1.4420571640        0.0765904673
 C         -1.7015485940       -0.0755779982        0.3556224368
 C         -2.8880375056        0.7333802275        0.6680399177
 C         -4.1034018772        0.1600782627        0.7069979148
 C         -5.4022344821        0.8551174958        1.0126510004
 C         -6.0289082109        1.5634503483       -0.1965313796
 C         -5.3203487006        2.8431153257       -0.6436435377
 H         -5.9865392708        3.3480172192       -1.3460620312
 H         -5.1912703108        3.5040461778        0.2139941768
 C         -3.9656517950        2.6132413015       -1.3285861000
 H         -3.8888149820        1.5695497043       -1.6426929452
 H         -3.9067591036        3.2225286198       -2.2333465563
 C         -2.7519683110        2.9617618238       -0.4667113008
 H         -2.7451617416        4.0345054990       -0.2613745370
 H         -1.8494126335        2.7214103721       -1.0348901074
 C         -2.6926707116        2.2061530720        0.8670179274
 H         -1.7017405872        2.3510076048        1.3041923454
 H         -3.4396805033        2.5995843669        1.5557950472
 H         -6.0705433563        0.8595171225       -1.0311478293
 H         -7.0564716390        1.8184811607        0.0728920875
 H         -6.0945669274        0.0837264685        1.3567503062
 H         -5.2534785031        1.5730528123        1.8197269430
 O         -4.2904382544       -1.1687127035        0.4845512682
 C         -3.2259801390       -1.9953778288        0.1608825525
 O         -3.5418307002       -3.1893176831       -0.0137500775
 H          1.7841975098       -1.6709586066       -0.9376144967
 C          1.6253313205       -1.8081990005        0.1182447706
 C          0.3756630810       -2.1533728945        0.6076948493
 C          0.2158440636       -2.3070787533        1.9830626010
 C          1.2758265296       -2.1025902084        2.8437923937
 C          2.5193294796       -1.7447652957        2.3523287691
 C          2.6934908966       -1.5972589999        0.9815110038
 N          3.9607648718       -1.2868152287        0.4636901221
 S          4.2388858845       -0.2080960783       -0.7798252020
 O          3.4754697793       -0.5815290058       -1.9426826032
 O          5.6777094192       -0.2143422474       -0.9353655115
 C          3.7296147776        1.3925624974       -0.1764481392
 C          4.7074129219        2.3203153063        0.1294283482
 C          4.3303431567        3.5615514779        0.6147711145
 C          2.9858888347        3.8522725552        0.7923822204
 C          2.0191875692        2.9077382770        0.4862088348
 C          2.3873027099        1.6641312320       -0.0041856250
 H          1.6386966098        0.9232748326       -0.2338894882
 H          0.9704951700        3.1172568621        0.6254155610
 H          2.6897009832        4.8180227528        1.1710818396
 H          5.0829173605        4.2959703323        0.8532486167
 H          5.7396119768        2.0512121329       -0.0267412137
 H          4.6821879134       -1.1933232443        1.1637816464
 H          3.3488510365       -1.5842793942        3.0242797828
 H          1.1345130576       -2.2193185611        3.9078713799
 H         -0.7579963682       -2.5808655403        2.3672148887
 C         -0.8166124659       -2.3894995842       -0.2881032386
 H         -1.2051212099       -3.3985098082       -0.0697180134
 C         -0.4580084169       -2.3706270143       -1.7669880193
 C         -1.4782782497       -2.0454075371       -2.8155424666
 C         -0.3529518653       -1.0947846317       -2.5448343371
 H          0.4408511320       -1.0016831755       -3.2720822438
 H         -0.5728148187       -0.1751187595       -2.0260711378
 H         -1.4670346151       -2.6135876957       -3.7335574958
 H         -2.4702698253       -1.7738334368       -2.4839306205
 H          0.2521720141       -3.1519040764       -2.0219685187
 O         -0.5626311637        0.4554057840        0.3503392332
