  62
        -98.93599913
 C         -2.0160415828       -1.5135393211        0.0947573237
 C         -2.3387258711       -0.5531290588       -0.8926978142
 C         -3.6827973411        0.0538024448       -0.8081869997
 C         -4.5110823616       -0.2902308523        0.1942922622
 C         -5.9306963382        0.1333148344        0.5086055267
 C         -6.5494191488        1.3578390743       -0.1607538667
 C         -5.9152616454        2.6916744645        0.2320712984
 H         -6.3696636119        3.4776453145       -0.3752117691
 H         -6.1575210456        2.8977385405        1.2777131887
 C         -4.3972803955        2.7683990943        0.0880689274
 H         -4.0822742279        3.7687812551        0.3977978174
 H         -3.9268991319        2.0592127753        0.7726530098
 C         -3.8616824893        2.5284137288       -1.3222202140
 H         -4.3552503301        3.2051664690       -2.0224870831
 H         -2.7964394375        2.7757309846       -1.3147776713
 C         -4.0006366027        1.0891702043       -1.8488272114
 H         -4.9873637537        0.9166168829       -2.2716154872
 H         -3.2707371517        0.9531149186       -2.6521733544
 H         -7.5966177095        1.3865590565        0.1524518831
 H         -6.5479025629        1.2394870551       -1.2403601509
 H         -6.5568286312       -0.7370186885        0.2824639310
 H         -5.9667255481        0.2632691225        1.5949429238
 O         -4.1480361058       -1.2080682341        1.1374797678
 C         -2.9172343504       -1.8348878816        1.1127621436
 O         -2.7441287801       -2.6540700356        2.0371258144
 H          0.0833640562        0.2679493040       -0.3984696565
 C          0.6504446448       -0.1601083844        0.4147909078
 C          0.3770509044       -1.4588296244        0.8229079621
 C          1.1228714508       -1.9996106583        1.8634104917
 C          2.1099768143       -1.2539772909        2.4851291219
 C          2.3774314196        0.0404870991        2.0780043778
 C          1.6411957543        0.5876417147        1.0344155920
 N          1.9168146531        1.8961072491        0.5993646934
 S          3.5222961555        2.2911945804        0.3353860431
 O          4.1495426268        2.6178208459        1.5921415891
 O          3.5011037816        3.3469125489       -0.6520469991
 C          4.2558844304        0.8113379593       -0.3391583103
 C          3.7899900901        0.3532573437       -1.5558078983
 C          4.3123664537       -0.8202391796       -2.0749961326
 C          5.2845796412       -1.5136136233       -1.3704305253
 C          5.7462795862       -1.0374401050       -0.1533433924
 C          5.2272807570        0.1356599613        0.3708728222
 H          5.5565062319        0.5404548649        1.3138645040
 H          6.5042809912       -1.5773597660        0.3907561663
 H          5.6830843158       -2.4304700341       -1.7748104776
 H          3.9525896126       -1.1927854081       -3.0205649591
 H          3.0340340243        0.9167895316       -2.0800623247
 H          1.3362889952        2.1940221283       -0.1711355969
 H          3.1361865118        0.6390295331        2.5554606460
 H          2.6766744217       -1.6843955093        3.2963763556
 H          0.9138922021       -3.0063826013        2.1942201436
 C         -0.6944853632       -2.2651599028        0.1355363294
 H         -0.8932352170       -3.1495198441        0.7607541375
 C         -0.2682082745       -2.7729151779       -1.2370618871
 C          0.9036602449       -2.2404953782       -1.9998440536
 C          0.9758104524       -3.5999078724       -1.3769444559
 H          0.9494909241       -4.4695146995       -2.0157082937
 H          1.5955483320       -3.7112278919       -0.5000168017
 H          0.8030369399       -2.1606234710       -3.0714997443
 H          1.4870393463       -1.4492522720       -1.5566570198
 H         -1.1240988181       -3.0801864274       -1.8300545211
 O         -1.5613061561       -0.2014139275       -1.8180894232
