  62
        -98.93694494
 C          2.6250796520        1.2281371415        0.1557754976
 C          2.6545165042        0.2516356128       -0.8658385831
 C          3.8578264244       -0.5993146047       -0.9190106297
 C          4.8399137217       -0.4010663939       -0.0226949322
 C          6.1143077400       -1.1849644931        0.1281141545
 C          5.9407425352       -2.3118468427        1.1605640723
 C          5.3967300333       -3.6241458361        0.5972275963
 H          6.1671846721       -4.0980423266       -0.0146407249
 H          5.1998722736       -4.2844223910        1.4449876246
 C          4.1184729421       -3.5001130567       -0.2361612981
 H          3.4240444899       -2.8140554106        0.2524717164
 H          3.6390628024       -4.4806278431       -0.2606140434
 C          4.3803045354       -3.0398381889       -1.6779000575
 H          5.4479220701       -3.1095667928       -1.8857063400
 H          3.8850250947       -3.7232892554       -2.3706848096
 C          3.8791193341       -1.6281249464       -2.0164397012
 H          4.4647578862       -1.2328062240       -2.8532588471
 H          2.8414911503       -1.6832600232       -2.3607184255
 H          5.2767644203       -1.9452751109        1.9476768359
 H          6.9093682167       -2.5174887585        1.6207035277
 H          6.4423019633       -1.5761893558       -0.8302570543
 H          6.8668709892       -0.4862858467        0.4995754009
 O          4.7697775768        0.5551231323        0.9450734305
 C          3.6703474758        1.3834262987        1.0652475843
 O          3.7378901048        2.2018973727        2.0048465910
 H         -0.9604954959        2.1161998807       -1.1088414584
 C         -0.9493329218        1.4300510493       -0.2764686206
 C          0.1786514489        1.3265701026        0.5203355051
 C          0.1560844401        0.4352050646        1.5904320432
 C         -0.9589876088       -0.3395107962        1.8424074396
 C         -2.0776520744       -0.2462296019        1.0319833232
 C         -2.0705599202        0.6454210947       -0.0306065777
 N         -3.1950805935        0.7381841240       -0.8646846568
 S         -4.7223412817        0.8340855566       -0.1827770580
 O         -5.5424144898        1.4737259856       -1.1882892701
 O         -4.6850888665        1.4703351359        1.1135244498
 C         -5.2302425001       -0.8644092880       -0.0164662780
 C         -5.1849011834       -1.6717405398       -1.1360587743
 C         -5.5892444880       -2.9924306219       -1.0252265573
 C         -6.0326670240       -3.4800525556        0.1951969514
 C         -6.0754887657       -2.6558446690        1.3091493448
 C         -5.6714303535       -1.3338777756        1.2051127745
 H         -5.6827309117       -0.6581390120        2.0455802173
 H         -6.4208853141       -3.0366575418        2.2568783556
 H         -6.3466817164       -4.5085607369        0.2784215796
 H         -5.5566008943       -3.6366673760       -1.8891350198
 H         -4.8362296467       -1.2554467226       -2.0664197720
 H         -3.0899977652        1.3866696010       -1.6309464156
 H         -2.9490798653       -0.8517637945        1.2198134737
 H         -0.9584063686       -1.0267231674        2.6750462277
 H          1.0315995894        0.3597827291        2.2218037736
 C          1.4246866727        2.1477577689        0.2928229650
 H          1.6036178974        2.7471813276        1.1973414186
 C          1.3417871383        3.0792880386       -0.8980161767
 C          0.6508276161        4.4029374286       -0.7706896189
 C          2.1440252435        4.3441565390       -0.8844901076
 H          2.6052058133        4.6723242028       -1.8039076283
 H          2.7350855871        4.5473499580       -0.0032626124
 H          0.2241220772        4.6538979928        0.1888936621
 H          0.0883312123        4.7768848015       -1.6132375921
 H          1.2650990921        2.5482263156       -1.8399476589
 O          1.7215304089        0.0913695727       -1.6958941596
