  62
        -98.93896758
 C         -1.6827853454       -1.1705235665       -0.2230111149
 C         -3.0208743620       -1.3916104601        0.1811664018
 C         -3.9960170031       -0.3663712978       -0.2192639756
 C         -3.5768414820        0.6906515994       -0.9387982070
 C         -4.4294042077        1.8564428138       -1.3524152859
 C         -4.6374061703        2.8065062208       -0.1555028450
 C         -6.0837118546        2.9003515661        0.3309554261
 H         -6.0721707203        3.4158261134        1.2936829423
 H         -6.6535227163        3.5180848193       -0.3663939253
 C         -6.8236982492        1.5683137182        0.4876590362
 H         -7.1680999320        1.2223086833       -0.4880672122
 H         -7.7191509648        1.7700775862        1.0793713765
 C         -6.0352049532        0.4365111450        1.1592791117
 H         -5.2469010600        0.8410808286        1.7944485893
 H         -6.7179727615       -0.1122699472        1.8111657242
 C         -5.4277389154       -0.5887622574        0.1832561073
 H         -5.4337431729       -1.5724571724        0.6620575562
 H         -6.0527425116       -0.6561254399       -0.7115069607
 H         -4.3021275497        3.8092774261       -0.4242835812
 H         -3.9978993378        2.4702397352        0.6632888419
 H         -3.9073029732        2.3704556295       -2.1596464601
 H         -5.3851669867        1.4982562290       -1.7283230750
 O         -2.2829735140        0.8638536895       -1.3140299056
 C         -1.3037593501       -0.0549331040       -0.9671678977
 O         -0.1634230936        0.2345043238       -1.3741957486
 H          2.1206341725       -1.9858339663       -0.2561073689
 C          1.7827061387       -1.5112422641        0.6492522943
 C          0.4420950429       -1.5168283520        0.9992577023
 C          0.0578052250       -0.8810485673        2.1785190069
 C          0.9888523973       -0.2512810196        2.9802056489
 C          2.3252666948       -0.2338166970        2.6183294020
 C          2.7200227326       -0.8659800161        1.4466891670
 N          4.0751249404       -0.8858353928        1.0629263909
 S          4.5175669064       -0.2540892454       -0.4245984509
 O          3.8733848903       -0.9869197984       -1.4819339940
 O          5.9645876442       -0.2837929857       -0.4159857315
 C          3.9618837846        1.4401462769       -0.3694949325
 C          4.8705188983        2.4148592276       -0.0021526795
 C          4.4405503819        3.7261623215        0.1141516986
 C          3.1108446264        4.0383777421       -0.1273906107
 C          2.2125415683        3.0473843937       -0.4903450758
 C          2.6352805284        1.7321276812       -0.6140318903
 H          1.9456693031        0.9533212549       -0.9000188512
 H          1.1762392363        3.2785074737       -0.6808178869
 H          2.7721340967        5.0583201334       -0.0338659237
 H          5.1392182532        4.4981726890        0.3938999586
 H          5.8945992445        2.1260311709        0.1717273468
 H          4.6993098024       -0.5231152466        1.7705833114
 H          3.0561359698        0.2608819261        3.2400815686
 H          0.6740566058        0.2346327826        3.8912726432
 H         -0.9875677093       -0.8909345798        2.4560620477
 C         -0.6208615964       -2.1848611029        0.1631206156
 H         -1.1387329973       -2.9223296418        0.7941159936
 C         -0.0816871653       -2.8912441804       -1.0620457012
 C          0.5050875255       -4.2642369869       -0.9351857956
 C         -0.8224417929       -4.0751201075       -1.6041605481
 H         -0.8843741231       -4.1983332689       -2.6750632094
 H         -1.7113436697       -4.3884796855       -1.0761522998
 H          0.5186919366       -4.7123740732        0.0468997123
 H          1.3592704881       -4.5159093984       -1.5457685389
 H          0.3655145035       -2.2124425165       -1.7802883388
 O         -3.3813572523       -2.3975890801        0.8498506653
