  62
        -98.94318334
 C         -1.4994599901       -1.8222635494        0.3092200502
 C         -0.3582072403       -1.6222070594        1.1251384405
 C          0.8494530497       -2.3644311997        0.7282706309
 C          0.8472330699       -3.0840553699       -0.4065236690
 C          2.0350001200       -3.8162762201       -0.9600183285
 C          2.8514655403       -2.9310196104       -1.9117475885
 C          3.1919402504       -1.5497911003       -1.3496096686
 H          3.8090982506       -1.0442556505       -2.0968671686
 H          2.2740309404       -0.9636856302       -1.2563859090
 C          3.9327851000       -1.5709164102       -0.0054678485
 H          4.7455553001       -0.8429571803       -0.0460464484
 H          4.3817303699       -2.5525258402        0.1529637518
 C          3.0686210498       -1.2042339999        1.2013957613
 H          3.7303936296       -1.0195991498        2.0515425314
 H          2.5314650799       -0.2764689398        0.9934911610
 C          2.0442522795       -2.2587745596        1.6338897112
 H          2.5320858794       -3.2298876197        1.7400981815
 H          1.6538703593       -1.9577271794        2.6103609010
 H          2.2772706806       -2.7879170805       -2.8304484687
 H          3.7730260603       -3.4597541906       -2.1650242082
 H          2.6617963297       -4.1531406300       -0.1361611383
 H          1.6750688200       -4.6874232702       -1.5106436885
 O         -0.2466627799       -3.1992751699       -1.2033000492
 C         -1.4359894999       -2.5791676896       -0.8628292096
 O         -2.3687727297       -2.7844287797       -1.6683227599
 H         -0.9130489597        0.6876202705        0.2642955299
 C         -1.8235237696        0.9813790105       -0.2319033004
 C         -2.9311362897        0.1484765607       -0.1706402905
 C         -4.0971254795        0.5398171807       -0.8173804409
 C         -4.1462136192        1.7365178806       -1.5111479811
 C         -3.0274328290        2.5448807304       -1.6012904610
 C         -1.8532756392        2.1563232204       -0.9658954206
 N         -0.6862398791        2.9337918802       -1.0500116405
 S          0.7925733309        2.1925566600       -1.3475992899
 O          1.4517406912        3.0306295297       -2.3297931599
 O          0.6244339008        0.8066319699       -1.7161789197
 C          1.7004200505        2.3212165501        0.1804810903
 C          3.0792159905        2.2717405399        0.0909960206
 C          3.8340228002        2.3474789101        1.2498738508
 C          3.1995347999        2.4646720904        2.4772392306
 C          1.8168234799        2.5145634706        2.5507216803
 C          1.0554343902        2.4456087304        1.3935087801
 H         -0.0206759598        2.4821095406        1.4315654398
 H          1.3215740197        2.6004312608        3.5043412901
 H          3.7855031797        2.5165889105        3.3811843408
 H          4.9098139702        2.3091472899        1.1920961111
 H          3.5282835507        2.1772201397       -0.8846682192
 H         -0.7774032989        3.7639845501       -1.6178269106
 H         -3.0561809488        3.4639669203       -2.1669096312
 H         -5.0582300790        2.0327644306       -2.0068631814
 H         -4.9605011796       -0.1088850892       -0.7938545810
 C         -2.8426278401       -1.1599227692        0.5740021897
 H         -3.5964152800       -1.8358568492        0.1378386597
 C         -3.1597169904       -1.0147755389        2.0561551996
 C         -3.1254165204        0.2979102812        2.7732721494
 C         -4.4385068405       -0.3665916586        2.4978151492
 H         -4.9797331407       -0.8076431284        3.3210857991
 H         -5.0681425802        0.0689985313        1.7371924889
 H         -2.8709055502        1.1772511211        2.2022537393
 H         -2.7426052407        0.3075749614        3.7818152695
 H         -2.8340722707       -1.8805893688        2.6228684199
 O         -0.3237903904       -0.8765256592        2.1367631503
