  62
        -98.94463106
 C         -1.6883761533       -1.4302661460        0.1213755388
 C         -1.6232151296       -0.3282431793       -0.7662332691
 C         -2.9169486696        0.2413196461       -1.1745492407
 C         -4.0567459662       -0.3010412873       -0.7098083819
 C         -5.4351140989        0.2188744796       -0.9955900278
 C         -5.8760190213        1.2317590614        0.0703889167
 C         -4.8385885787        2.3173057161        0.3584167111
 H         -5.2700723448        2.9907940049        1.1021975487
 H         -3.9570003501        1.8599024786        0.8142066202
 C         -4.4073819736        3.1259488317       -0.8731303403
 H         -5.1395661396        3.0029092019       -1.6721243276
 H         -4.3909892648        4.1853323745       -0.6084412546
 C         -3.0153306586        2.7799031761       -1.4055390932
 H         -2.2877661519        2.8161543480       -0.5897124773
 H         -2.7277247550        3.5477494253       -2.1291673324
 C         -2.8875337010        1.4208599103       -2.1051495126
 H         -3.6591394376        1.3277999912       -2.8722025806
 H         -1.9094020001        1.3938352101       -2.5942958636
 H         -6.8078028770        1.6956354240       -0.2580025741
 H         -6.0733580259        0.6927217361        0.9998429936
 H         -5.4466912836        0.6828902902       -1.9797452172
 H         -6.1285381149       -0.6237221074       -0.9919667117
 O         -4.0794133344       -1.3694278354        0.1269849328
 C         -2.9035910785       -1.9438990798        0.5786260287
 O         -3.0686541964       -2.8954799646        1.3686135766
 H          1.9520832936       -0.6984997037        0.3812380444
 C          1.4414753784       -0.4709562161        1.2994937300
 C          0.2422467086       -1.0951000421        1.5991035970
 C         -0.3900396131       -0.7866282845        2.8018142019
 C          0.1687284946        0.1220932518        3.6788391526
 C          1.3593358233        0.7571029115        3.3659714867
 C          1.9932814766        0.4635784123        2.1663512088
 N          3.2094252067        1.0776511245        1.8136105159
 S          3.2755074272        1.8859317696        0.3362368048
 O          4.4182771849        2.7674735271        0.4691439274
 O          2.0183467740        2.5292292579        0.0363252767
 C          3.6667629104        0.6236993900       -0.8544074280
 C          2.7483113301        0.2735348549       -1.8243017584
 C          3.0892902336       -0.7156447784       -2.7345297866
 C          4.3296680848       -1.3305348027       -2.6596382449
 C          5.2400147558       -0.9635579789       -1.6795295117
 C          4.9084732482        0.0248267024       -0.7672909952
 H          5.5864148878        0.3465593932        0.0056068967
 H          6.2027497123       -1.4455459170       -1.6239754440
 H          4.5858459346       -2.1019730667       -3.3689881583
 H          2.3775138171       -1.0047504756       -3.4918717572
 H          1.7792479888        0.7486849575       -1.8312079229
 H          3.5913747327        1.6693145594        2.5389105730
 H          1.7920130471        1.4767867819        4.0451021605
 H         -0.3289660128        0.3468022083        4.6104804258
 H         -1.3280239652       -1.2720808529        3.0360180483
 C         -0.4215688427       -2.0757069561        0.6618880335
 H         -0.7550790993       -2.9363439634        1.2585128779
 C          0.4784998548       -2.5679536692       -0.4508558473
 C          1.5765968728       -3.5390904364       -0.1404418881
 C          0.3718824763       -3.9896513670       -0.9094329315
 H          0.4794511394       -4.1997405704       -1.9627707493
 H         -0.3470158351       -4.6231654690       -0.4102144120
 H          2.5146873076       -3.4378090618       -0.6648292231
 H          1.6760163235       -3.8678164227        0.8829326255
 H          0.6673732932       -1.8166682785       -1.2069942643
 O         -0.5499438248        0.1568677891       -1.2084411023
