  62
        -98.94443682
 C         -1.9506070286       -1.0873894560       -0.2080981724
 C         -2.4398535034        0.0776117809       -0.8460312519
 C         -3.8959145217        0.2744573097       -0.7843024998
 C         -4.6617449960       -0.6457238006       -0.1700741461
 C         -6.1481110407       -0.5429671782        0.0102021522
 C         -6.5001006137        0.1450970274        1.3366217512
 C         -5.7453735715        1.4533109027        1.5732585342
 H         -6.0964022503        1.8641327960        2.5223550939
 H         -4.6812957240        1.2358336940        1.6908329672
 C         -5.9265553287        2.5001683871        0.4652994763
 H         -6.8039345989        2.2566687672       -0.1350048539
 H         -6.1102825862        3.4720021070        0.9282768648
 C         -4.7149348203        2.6671450586       -0.4538809149
 H         -3.8146883372        2.8178435839        0.1476174661
 H         -4.8633096230        3.5706244635       -1.0514584541
 C         -4.4529259726        1.5123090123       -1.4289358624
 H         -5.3656778110        1.2831505463       -1.9828234143
 H         -3.6925860747        1.8457687191       -2.1415011460
 H         -7.5748471289        0.3349361927        1.3522301541
 H         -6.2637936013       -0.5391925538        2.1547190975
 H         -6.5723319607        0.0128427004       -0.8236275574
 H         -6.5647808670       -1.5515735619        0.0125421620
 O         -4.1561070430       -1.7653472674        0.4077672359
 C         -2.7924209438       -2.0076747022        0.4161957087
 O         -2.4582389456       -3.0566974279        1.0030467715
 H          1.6805731163        0.0860876547       -1.1987079381
 C          1.3471879333        0.4117346159       -0.2283290576
 C          0.2841967218       -0.2117755507        0.4044670039
 C         -0.1176042173        0.2587657556        1.6529301173
 C          0.5124227909        1.3387489671        2.2382166260
 C          1.5679316229        1.9653614955        1.5980757295
 C          1.9835202194        1.4992836110        0.3575216001
 N          3.0410631392        2.1275166773       -0.3194035442
 S          4.2361494164        1.2230825194       -1.0574920477
 O          5.3115282582        2.1630216237       -1.2845879394
 O          3.7179083906        0.5542333476       -2.2225309919
 C          4.7187498950        0.0363291802        0.1828124836
 C          4.2033436251       -1.2430300631        0.1469099133
 C          4.5378264256       -2.1271402542        1.1607972577
 C          5.3757487662       -1.7188649389        2.1867250228
 C          5.8896408418       -0.4308696617        2.2055826182
 C          5.5559540258        0.4584251498        1.1975072309
 H          5.9428420627        1.4641791681        1.1691350433
 H          6.5453527786       -0.1184850256        3.0022803463
 H          5.6316453067       -2.4101559775        2.9741496576
 H          4.1410865371       -3.1298557135        1.1463031970
 H          3.5592163913       -1.5254549979       -0.6692263915
 H          3.4384763975        2.9161069133        0.1696519080
 H          2.0560563397        2.8160489236        2.0488663183
 H          0.1817925130        1.6970491315        3.2015430482
 H         -0.9441451143       -0.2301987434        2.1512379223
 C         -0.4597442282       -1.3772156074       -0.2001552745
 H         -0.3247578370       -2.2497987730        0.4556264256
 C          0.0057894704       -1.7415448564       -1.5941116869
 C          1.1524489938       -2.6868390514       -1.7832992113
 C         -0.2435251752       -3.1278424255       -2.1041856518
 H         -0.5232490734       -3.2536133245       -3.1393940211
 H         -0.7278216469       -3.8223672426       -1.4329465412
 H          1.6108655357       -3.0962045581       -0.8954778372
 H          1.8390546520       -2.5083587417       -2.5979841104
 H         -0.1066899092       -0.9268127682       -2.3007707592
 O         -1.7033684329        0.9115217032       -1.4348359039
