  62
        -98.94369833
 C         -1.9585916387       -1.2688596792       -0.2005288020
 C         -2.2984659488       -0.0796583385       -0.8901946407
 C         -3.7246883989        0.2820117514       -0.8766273404
 C         -4.6029425588       -0.5074597294       -0.2327036812
 C         -6.0682022688       -0.2192274298       -0.0844982009
 C         -6.3487402889        0.5818113188        1.1949343200
 C         -5.4450289190        1.8021793387        1.3721262213
 H         -5.7533246591        2.3041950277        2.2917453718
 H         -4.4155596390        1.4670107587        1.5189911709
 C         -5.4893140092        2.7998725200        0.2063068024
 H         -5.5609881493        3.8110573195        0.6124104835
 H         -6.3828045791        2.6282422805       -0.3951042778
 C         -4.2571394092        2.7707506411       -0.6999116977
 H         -4.2923309193        3.6481909618       -1.3514104467
 H         -3.3512792792        2.8513351806       -0.0931391876
 C         -4.1228560990        1.5369620121       -1.6011008790
 H         -5.0499914090        1.3841460526       -2.1574229592
 H         -3.3203021690        1.7362113430       -2.3176521288
 H         -6.2051366988       -0.0771582621        2.0542829193
 H         -7.3928548189        0.8995382487        1.1808601103
 H         -6.4141409189        0.3340225611       -0.9554063603
 H         -6.6026955887       -1.1691739199       -0.0324551219
 O         -4.2397045886       -1.6467142901        0.4096059776
 C         -2.9155446086       -2.0479248300        0.4529569771
 O         -2.7196043085       -3.1011836506        1.0921602960
 H          1.2504808211        0.2653286820       -0.8807245804
 C          1.1047633512        0.1999338308        0.1837203195
 C          0.2557497913       -0.7515851999        0.7255868385
 C          0.0579986913       -0.7666234714        2.1050594985
 C          0.6934835312        0.1496732478        2.9195038795
 C          1.5461116611        1.0952385685        2.3757664305
 C          1.7461132210        1.1235773600        1.0007932905
 N          2.5817395909        2.0957906907        0.4307182716
 S          3.6737212710        1.7288666921       -0.7776529988
 O          4.5136356708        2.9031448523       -0.8661114176
 O          2.9911407510        1.3375192333       -1.9832098992
 C          4.6216849511        0.3630763315       -0.1312359003
 C          5.7503647811        0.6383664109        0.6164129900
 C          6.4667169712       -0.4139393796        1.1628164188
 C          6.0389467214       -1.7176463595        0.9611734674
 C          4.9025121014       -1.9768627188        0.2108146372
 C          4.1838937213       -0.9287862883       -0.3428046217
 H          3.2992975013       -1.0953834277       -0.9344204819
 H          4.5704026515       -2.9904278987        0.0520029361
 H          6.5954311315       -2.5370882499        1.3880469066
 H          7.3534033012       -0.2155497701        1.7430825191
 H          6.0522487310        1.6659252308        0.7390495211
 H          2.9911825909        2.7359078400        1.0952161723
 H          2.0413316210        1.8157551379        3.0089442713
 H          0.5285454312        0.1274561066        3.9861163295
 H         -0.6152169586       -1.5019731919        2.5244157877
 C         -0.5142732186       -1.7395700191       -0.1163044025
 H         -0.5449210485       -2.6944798597        0.4264399464
 C          0.0707217414       -1.9861771875       -1.4900680328
 C          1.2351109315       -2.9173021872       -1.6388841338
 C         -0.1221874784       -3.3309790469       -2.1216359243
 H         -0.3002536984       -3.3797042858       -3.1854674143
 H         -0.6637244583       -4.0740377476       -1.5541062851
 H          1.6154610216       -3.3860790482       -0.7436719143
 H          1.9891731915       -2.6862499563       -2.3767383036
 H          0.0221381313       -1.1231613568       -2.1428263119
 O         -1.4662750089        0.6483562223       -1.4915180300
