  62
        -98.94013513
 C         -1.1433268985       -1.0505787025       -0.5042019609
 C         -2.2414254523       -1.3558828173        0.3377902643
 C         -3.0726178702       -0.2297249842        0.7922613309
 C         -2.7298812048        1.0175150451        0.4278384239
 C         -3.4546818998        2.2966011827        0.7448377167
 C         -4.4308987365        2.6640902576       -0.3856973661
 C         -5.8202340733        2.0391937355       -0.2643212629
 H         -6.3569475009        2.5157661017        0.5586642654
 H         -6.3611338213        2.2688895274       -1.1851564720
 C         -5.8400061307        0.5237424137       -0.0479096681
 H         -5.1046901834        0.0490967994       -0.6999919662
 H         -6.8232980864        0.1556685826       -0.3469529557
 C         -5.5817299670        0.1181507927        1.4109500790
 H         -5.6571825696        1.0012775472        2.0452529497
 H         -6.3659301185       -0.5667993086        1.7400890644
 C         -4.2417815602       -0.5876871609        1.6687436084
 H         -3.9520004796       -0.4357792779        2.7142976057
 H         -4.3665013095       -1.6670651155        1.5354435427
 H         -3.9734968171        2.3649489911       -1.3321246022
 H         -4.5491795382        3.7493231490       -0.4075359513
 H         -3.9665733795        2.2217738595        1.6998000523
 H         -2.6927074216        3.0757024262        0.8175143923
 O         -1.6564310649        1.2743684132       -0.3642693842
 C         -0.8377609375        0.2665475945       -0.8484219488
 O          0.0919006163        0.6882938161       -1.5633430177
 H          1.5600372101       -0.3924948081       -0.2085565712
 C          1.7198521307       -1.3422885394        0.2748545196
 C          0.8744991584       -2.4069949833       -0.0013267447
 C          1.1072188130       -3.6248046207        0.6265186672
 C          2.1530403976       -3.7650068739        1.5218209183
 C          2.9663904093       -2.6887910415        1.8279025804
 C          2.7400008722       -1.4669219606        1.2046702134
 N          3.5293814092       -0.3433381654        1.4913424645
 S          2.7955846309        1.1636742895        1.5646123525
 O          3.6799211025        1.9469934902        2.4068348864
 O          1.4271416657        1.0706881165        2.0220428375
 C          2.8876833524        1.8145243209       -0.0875565288
 C          1.9490681685        2.7458528783       -0.4801663971
 C          2.0471537816        3.3049012698       -1.7437795341
 C          3.0767341362        2.9230301750       -2.5880632058
 C          4.0128523144        1.9864430101       -2.1777243901
 C          3.9233068105        1.4270017210       -0.9136730020
 H          4.6287318213        0.6908685429       -0.5653582650
 H          4.8093367224        1.6871891349       -2.8401810689
 H          3.1455766901        3.3544758246       -3.5744474016
 H          1.3120569952        4.0249108801       -2.0659541102
 H          1.1506260934        2.9999985863        0.1993281328
 H          4.2015351188       -0.4674908528        2.2347454852
 H          3.7642947609       -2.7880651131        2.5480332635
 H          2.3240359374       -4.7159519689        2.0031359296
 H          0.4502646639       -4.4580298645        0.4254063286
 C         -0.2863268554       -2.2236068988       -0.9502556317
 H         -0.9330418739       -3.1073881372       -0.8606709923
 C          0.2043201174       -2.1286174931       -2.3811975192
 C          0.5629659348       -3.3865778585       -3.1118928202
 C         -0.6699563695       -2.6240929714       -3.4922282062
 H         -0.6766231247       -2.0772535797       -4.4228690556
 H         -1.6303442644       -3.0403317863       -3.2243812970
 H          1.4071105594       -3.3671358224       -3.7835061467
 H          0.4369774220       -4.3230191310       -2.5900510294
 H          0.7994648049       -1.2454137267       -2.5718943557
 O         -2.5274901084       -2.5349559581        0.6855408812
