  62
        -98.94467801
 C         -2.5747035411        0.1758374867        0.3552192791
 C         -2.1546862794        0.7111062126       -0.8869342359
 C         -1.6811912916        2.1022083675       -0.8566637104
 C         -1.6577122525        2.7659125796        0.3130132266
 C         -1.1825199139        4.1786736880        0.4929281354
 C          0.3067822856        4.2351222568        0.8560449465
 C          1.2046487509        3.4127186783       -0.0688015648
 H          2.2369567300        3.5835813635        0.2470308888
 H          1.0043103745        2.3486188162        0.0814402319
 C          1.0643056165        3.7472431775       -1.5603382940
 H          0.6037811666        4.7293383378       -1.6798362198
 H          2.0631272167        3.7989336400       -1.9984694166
 C          0.2795949118        2.7101256709       -2.3666659968
 H          0.6558811168        1.7113042092       -2.1318966119
 H          0.4624191372        2.8937863710       -3.4291095403
 C         -1.2402209959        2.7121877894       -2.1568362037
 H         -1.6276023858        3.7289296487       -2.2578505492
 H         -1.6849299482        2.0932830549       -2.9416567609
 H          0.6243501624        5.2798703803        0.8391755558
 H          0.4314045391        3.8559302470        1.8733187941
 H         -1.3638326287        4.7338324930       -0.4255315385
 H         -1.7601311276        4.6312992284        1.3012990309
 O         -2.0540308896        2.2121882933        1.4894083152
 C         -2.4957127298        0.9013357871        1.5419500909
 O         -2.7969145945        0.5038715276        2.6885597268
 H         -0.4825610797       -1.0389659261        1.1371079353
 C         -0.6357553100       -1.8937632708        0.4896505166
 C         -1.9127488335       -2.1801056797        0.0214000217
 C         -2.0774158816       -3.2925249039       -0.7927766726
 C         -0.9892491118       -4.0738232890       -1.1467654701
 C          0.2849574018       -3.7575877404       -0.7114196150
 C          0.4554437041       -2.6558694364        0.1159578055
 N          1.7682016127       -2.2706999111        0.5267696521
 S          2.0548997957       -0.6145872846        0.4860160632
 O          1.7244192376        0.0151624337        1.7512371732
 O          1.4295022301       -0.0857302172       -0.6975547370
 C          3.8255435297       -0.6146224540        0.2745948101
 C          4.6525331498       -0.2109851642        1.3038374283
 C          6.0259082498       -0.2529961495        1.1171277506
 C          6.5450242734       -0.6990287789       -0.0883303962
 C          5.7013705814       -1.1007077714       -1.1138132884
 C          4.3285294815       -1.0590134237       -0.9332309943
 H          3.6322049640       -1.3534376360       -1.7012565205
 H          6.1082788346       -1.4454543644       -2.0507996079
 H          7.6136688786       -0.7324728851       -0.2305706988
 H          6.6833047282        0.0611711723        1.9118948633
 H          4.2031864698        0.1315769885        2.2223167175
 H          2.0430638165       -2.6577131043        1.4188869021
 H          1.1406680362       -4.3442721932       -1.0030363512
 H         -1.1362010165       -4.9312354077       -1.7856658417
 H         -3.0595953412       -3.5425386984       -1.1601990176
 C         -3.0398719260       -1.2672895104        0.4410414187
 H         -3.2486018597       -1.4545037961        1.5056490874
 C         -4.3139029771       -1.4727726017       -0.3509442088
 C         -5.3069165221       -2.5117911847        0.0733812571
 C         -5.6173277279       -1.0579946771        0.2605019385
 H         -6.3616638243       -0.6004993986       -0.3735114803
 H         -5.5859770960       -0.6501279349        1.2607522368
 H         -5.8443400221       -3.0532584181       -0.6903145898
 H         -5.0760946132       -3.0956139824        0.9516777675
 H         -4.1768269944       -1.2916354181       -1.4105443232
 O         -2.1932595478        0.0670446643       -1.9675008784
