  62
        -98.94946535
 C         -2.0474143594        0.4055957353        0.3190078098
 C         -1.3709366266        1.3198282028        1.1595986873
 C         -0.9849957314        2.5942656160        0.5434044769
 C         -1.2365812753        2.8050404610       -0.7615377735
 C         -0.9053617363        4.0512410346       -1.5372287983
 C          0.5443830428        4.0980399791       -2.0390809821
 C          1.5906743906        4.4082260702       -0.9680410080
 H          2.5202154764        4.6467611766       -1.4888866292
 H          1.2889834802        5.2971268099       -0.4120855196
 C          1.8571692610        3.2518697799        0.0054704023
 H          2.9353054760        3.1361856647        0.1451680536
 H          1.4970830920        2.3191205864       -0.4367768775
 C          1.2391092910        3.4371108523        1.3913574873
 H          1.6875206503        4.3083350725        1.8746478272
 H          1.4814685261        2.5596486399        1.9944080800
 C         -0.2850596745        3.6129343020        1.3942992115
 H         -0.6408197985        3.4840104784        2.4199092303
 H         -0.5447167223        4.6174455483        1.0596766533
 H          0.7819812491        3.1399348694       -2.5090268692
 H          0.6001168753        4.8717810667       -2.8087155761
 H         -1.5711062427        4.0628077832       -2.4029931195
 H         -1.1108414441        4.9324346385       -0.9281968378
 O         -1.8629386346        1.8889698525       -1.5451676239
 C         -2.2732059142        0.6684741349       -1.0325240653
 O         -2.8324205072       -0.0740699237       -1.8631865126
 O         -1.1035427989        1.0843869765        2.3697769938
 C         -2.4772409050       -0.9425459375        0.8738306053
 C         -1.8278322111       -2.0352711203        0.0604963637
 C         -2.5040174644       -3.1283311463       -0.4626750031
 C         -1.8374271377       -4.0355006589       -1.2695111438
 C         -0.5024743448       -3.8637194146       -1.5845443556
 C          0.1888526280       -2.7819208845       -1.0471696477
 C         -0.4698128692       -1.9078876634       -0.2015576855
 H          0.0630879869       -1.0680166920        0.2121899619
 N          1.5430985493       -2.5767263904       -1.3361865105
 S          2.2854354527       -1.0807493061       -1.2376626503
 O          1.3779349856        0.0140927538       -1.4854173786
 O          3.4114971976       -1.1915770951       -2.1415719901
 C          2.9023823901       -1.0552727328        0.4332009327
 C          2.3112564497       -0.2676453214        1.3988383334
 C          2.8079818345       -0.3020953238        2.6926474638
 C          3.8848388990       -1.1190194805        2.9980705393
 C          4.4733339156       -1.9019978597        2.0158097553
 C          3.9787433325       -1.8725522832        0.7226590470
 H          4.4117164896       -2.4558919686       -0.0728202890
 H          5.3129526146       -2.5343233437        2.2553032058
 H          4.2666096282       -1.1429429420        4.0064918725
 H          2.3409592184        0.3061548077        3.4513878157
 H          1.4734247677        0.3605817611        1.1381883274
 H          1.9218185073       -3.1487002455       -2.0752550866
 H          0.0015842770       -4.5518417883       -2.2458806619
 H         -2.3739427123       -4.8776145593       -1.6801369834
 H         -3.5540554777       -3.2605857751       -0.2595035598
 H         -2.0812192208       -0.9819057931        1.8995254097
 C         -3.9869203641       -1.0407311526        0.9264837542
 C         -4.6526084954       -1.9139884687        1.9467706924
 C         -4.7141790484       -0.4230371462        2.0817462446
 H         -5.6524492451        0.0764108012        1.8922988110
 H         -4.1156919073        0.0489304623        2.8471106574
 H         -5.5533508128       -2.4389801330        1.6667062531
 H         -4.0174632320       -2.4582476542        2.6289283291
 H         -4.4413861854       -0.9566644580       -0.0546083584
