  62
        -98.94054038
 C         -2.6427143131       -1.2863620876       -0.2598132725
 C         -2.3219656167       -0.0948088816       -0.9538343399
 C         -3.4088587254        0.8888917497       -1.0700711963
 C         -4.6146189372        0.6078328521       -0.5434856711
 C         -5.7903886946        1.5403914386       -0.5426001917
 C         -5.8134066979        2.4006673389        0.7285414793
 C         -4.4762463684        3.0709867771        1.0450636830
 H         -4.6199080781        3.6760608299        1.9429639101
 H         -3.7391439468        2.3028690911        1.2918931629
 C         -3.9260849477        3.9544873217       -0.0833063371
 H         -3.5674930845        4.8909260459        0.3492027882
 H         -4.7259101946        4.2047808964       -0.7812573263
 C         -2.7538751019        3.3441449571       -0.8542749198
 H         -2.3076615124        4.1294463746       -1.4705237844
 H         -1.9864807826        3.0074542244       -0.1514682224
 C         -3.1029046757        2.1751391820       -1.7843002683
 H         -3.9287201531        2.4599145744       -2.4393529526
 H         -2.2247470656        1.9719601051       -2.4041501007
 H         -6.0843775251        1.7633349085        1.5734015574
 H         -6.5864492170        3.1629057690        0.6160698907
 H         -5.7443210405        2.1766553432       -1.4240874339
 H         -6.7028396629        0.9432308879       -0.5827710649
 O         -4.8884571330       -0.5549732619        0.1012002826
 C         -3.9094623444       -1.5176210800        0.2783133376
 O         -4.2841188819       -2.5210896339        0.9178316508
 H          1.0386082747       -1.8015822669       -0.7066295074
 C          0.7959394887       -1.5328107638        0.3091629690
 C         -0.4783832087       -1.7638512396        0.7979692685
 C         -0.7693614414       -1.3872752798        2.1071051839
 C          0.1927944019       -0.7956275068        2.9019677133
 C          1.4662347659       -0.5647541562        2.4097636239
 C          1.7644858574       -0.9307751244        1.1051853845
 N          3.0595147255       -0.7192657218        0.5957358991
 S          3.8285103736        0.7351850791        0.9794628425
 O          4.3727560513        0.6240093230        2.3104417482
 O          2.9402485933        1.8535976425        0.7546649557
 C          5.1526896323        0.7351760835       -0.2128719746
 C          6.3377241911        0.0981937592        0.1026212394
 C          7.3559600596        0.0749247934       -0.8371298215
 C          7.1729176469        0.6845001295       -2.0694084607
 C          5.9781205610        1.3209026703       -2.3711752772
 C          4.9550839003        1.3468617712       -1.4364044441
 H          4.0130982161        1.8373776644       -1.6252578686
 H          5.8393060548        1.7962832925       -3.3288931891
 H          7.9669150682        0.6664275297       -2.7991552130
 H          8.2871168775       -0.4167123769       -0.6060674212
 H          6.4367281486       -0.3533555180        1.0757855690
 H          3.0998675468       -0.8881794181       -0.4005841641
 H          2.2230223234       -0.0925079926        3.0150187320
 H         -0.0480926939       -0.5064448219        3.9143191865
 H         -1.7680165327       -1.5572753679        2.4874990444
 C         -1.5857567358       -2.3561518952       -0.0398031903
 H         -2.0722635565       -3.1451586004        0.5501449988
 C         -1.1255104160       -2.9453832922       -1.3558348170
 C         -0.4418734168       -4.2787367861       -1.3728224083
 C         -1.8370288166       -4.1446074381       -1.9030511061
 H         -1.9930651418       -4.2081777120       -2.9695137385
 H         -2.6501957149       -4.5500898227       -1.3188187150
 H          0.3602674745       -4.4400883231       -2.0768242847
 H         -0.3051637295       -4.7794014231       -0.4263093645
 H         -0.8024415482       -2.1937471691       -2.0661838112
 O         -1.1918515459        0.1391285842       -1.4578171495
