  62
        -98.94085354
 C         -2.6208895569       -0.8059816579       -0.1593860574
 C         -2.0680967252        0.1604784944       -1.0367638670
 C         -2.5733215407        1.5323206926       -0.8736312080
 C         -3.5416764465        1.7961426193        0.0208404946
 C         -4.1984654262        3.1296555311        0.2565316896
 C         -3.4336710820        4.0483722715        1.2182579511
 C         -2.1433057414        4.6444113393        0.6550157957
 H         -2.3509488266        5.1184566984       -0.3047136382
 H         -1.8230264296        5.4280175661        1.3443699537
 C         -1.0004175684        3.6323178966        0.4936426689
 H         -1.2121545973        2.7375137641        1.0839414865
 H         -0.0740178009        4.0551679705        0.8884048671
 C         -0.7172686012        3.2074794642       -0.9475076714
 H          0.0736494363        2.4520573662       -0.9231832694
 H         -0.3498986967        4.0640470281       -1.5182219287
 C         -1.9262043563        2.6143637226       -1.6835110960
 H         -2.6457229640        3.3987540477       -1.9203121527
 H         -1.5729446502        2.1669228800       -2.6160824579
 H         -3.2085025928        3.4899314190        2.1296373385
 H         -4.1028654520        4.8692621647        1.4860780832
 H         -5.1787826628        2.9182799747        0.6890815633
 H         -4.3409520377        3.6380744963       -0.6974676519
 O         -4.0757528006        0.8328943721        0.8181299249
 C         -3.6049985329       -0.4677309941        0.7743438642
 O         -4.1527096237       -1.2316611539        1.5957711555
 O         -1.2168089458       -0.0842466891       -1.9316684404
 C         -2.1826698213       -2.2632286064       -0.1347892068
 C         -0.9183001543       -2.4061169583        0.6794060650
 C         -0.9528686595       -3.0483884831        1.9125182182
 C          0.1917776214       -3.1628441757        2.6804015516
 C          1.3886285738       -2.6330819713        2.2354665742
 C          1.4352112601       -1.9904940163        1.0023578836
 C          0.2876929348       -1.8853543873        0.2294067226
 H          0.3369585783       -1.3650572628       -0.7145681217
 N          2.6471422711       -1.4710706303        0.5202905646
 S          2.6162024953       -0.0465170112       -0.3907056872
 O          1.7167077685        0.9081819216        0.2136730034
 O          2.3967568391       -0.3851350470       -1.7728869755
 C          4.3070886664        0.4852673371       -0.1822514798
 C          4.6006937251        1.5041430475        0.7034119287
 C          5.9228371130        1.8849928033        0.8737664864
 C          6.9237533055        1.2415690622        0.1618854081
 C          6.6138023787        0.2205654119       -0.7246068681
 C          5.2940985115       -0.1632709460       -0.9007778856
 H          5.0034539056       -0.9429712027       -1.5853276245
 H          7.3942049151       -0.2757225734       -1.2785320046
 H          7.9515006174        1.5397009456        0.2962839383
 H          6.1659464771        2.6805860009        1.5594665307
 H          3.7880390229        1.9789694962        1.2296272812
 H          3.3677787142       -1.4387319126        1.2288701553
 H          2.2822746317       -2.7146910632        2.8355779466
 H          0.1494922040       -3.6611233818        3.6370922996
 H         -1.8929430362       -3.4400164475        2.2733910323
 H         -2.9812687344       -2.8000301670        0.3961338393
 C         -2.0317395456       -2.8796129996       -1.5108212977
 C         -2.1313780955       -4.3681016470       -1.6493213825
 C         -3.2285901592       -3.4910223148       -2.1719068201
 H         -3.3392255527       -3.3782319448       -3.2399058131
 H         -4.1637349506       -3.4664079379       -1.6310627474
 H         -1.4855558543       -4.8620009108       -2.3589327062
 H         -2.3251814236       -4.9415761276       -0.7553551347
 H         -1.3262175441       -2.3592531609       -2.1448255443
