  62
        -98.94129178
 C          2.3191370072        1.0642286426       -0.6371495001
 C          3.5191306427        0.7121750355        0.0348503327
 C          4.0707500321       -0.6110096997       -0.2708264176
 C          3.4399923069       -1.4072286094       -1.1526210186
 C          3.8806636898       -2.7805119304       -1.5807159833
 C          3.4386423816       -3.8994054640       -0.6275173142
 C          4.1883772813       -3.9520971839        0.7042634798
 H          3.9370115495       -4.9043922746        1.1753822677
 H          5.2624258572       -3.9548263954        0.5158316620
 C          3.8370176534       -2.8156128711        1.6748475719
 H          2.8978290968       -2.3484998194        1.3668628927
 H          3.6720226683       -3.2274256966        2.6732113306
 C          4.9112840724       -1.7351909856        1.8030765380
 H          4.5396464471       -0.9643010927        2.4830072894
 H          5.8131505809       -2.1666458605        2.2428758266
 C          5.2889985994       -1.0576857955        0.4793227622
 H          5.8861467386       -1.7333493401       -0.1324370507
 H          5.8840155703       -0.1698676485        0.7065184429
 H          2.3673675434       -3.7948895808       -0.4379419896
 H          3.5936238062       -4.8490240347       -1.1449277233
 H          4.9653070683       -2.8006044751       -1.6895058464
 H          3.4284167496       -2.9619989163       -2.5580165120
 O          2.3013448575       -1.0294111147       -1.7887553948
 C          1.6972781725        0.1936337610       -1.5323031889
 O          0.6434904047        0.3682193249       -2.1764146205
 O          4.1050227770        1.4745459023        0.8484391119
 C          1.7020719434        2.4111998663       -0.2917475577
 C          0.5340180650        2.1681706527        0.6330985569
 C          0.7048349684        2.2511892650        2.0111677344
 C         -0.3341803127        1.9430726945        2.8711677835
 C         -1.5611157994        1.5362687577        2.3771207061
 C         -1.7369974227        1.4416561770        1.0031863787
 C         -0.7015942235        1.7729498030        0.1415352519
 H         -0.8413113763        1.6704090582       -0.9236005797
 N         -2.9760984760        0.9978058621        0.4839503347
 S         -3.4283266041       -0.5463846646        1.0113388543
 O         -3.9379346351       -0.4322312636        2.3550881750
 O         -2.3365333901       -1.4794082023        0.8299253642
 C         -4.7604190892       -0.9183686731       -0.1116296457
 C         -6.0515546894       -0.5691744911        0.2343142177
 C         -7.0780248044       -0.8338418459       -0.6584241587
 C         -6.7974011679       -1.4379932044       -1.8748014530
 C         -5.4957832359       -1.7820458641       -2.2081538859
 C         -4.4643519494       -1.5192435888       -1.3204637789
 H         -3.4387454731       -1.7766601508       -1.5360091173
 H         -5.2792483744       -2.2524992081       -3.1538768309
 H         -7.5973479919       -1.6445649688       -2.5680859191
 H         -8.0913917695       -0.5692817839       -0.4031844292
 H         -6.2207094768       -0.1086111192        1.1934152794
 H         -2.9490658826        0.9929903543       -0.5287797346
 H         -2.3710105556        1.2651488670        3.0346884019
 H         -0.1858187516        2.0114010097        3.9385028117
 H          1.6705904912        2.5372026385        2.4033480633
 H          2.4763487534        2.9439127298        0.2761739482
 C          1.3418905357        3.2370586270       -1.5087445346
 C          1.0780614713        4.7022569210       -1.3373936017
 C          2.3256349566        4.2410778232       -2.0273275918
 H          2.4065881678        4.3768300474       -3.0953550646
 H          3.2651420372        4.3374648999       -1.5031355655
 H          0.3004429655        5.1586847557       -1.9301588770
 H          1.1705000997        5.1108245003       -0.3424802376
 H          0.7553682994        2.6996317619       -2.2423422561
