  62
        -98.93688317
 C          1.4405925566        1.2006183104        0.2122760469
 C          2.4528816719        0.8423469704        1.1342006131
 C          3.1340898043       -0.4453842305        0.9109063339
 C          2.7348500044       -1.2339762021       -0.1038512482
 C          3.1992592265       -2.6098171566       -0.5349578345
 C          4.5258985138       -3.1784718431       -0.0370908082
 C          5.7682523000       -2.4363861136       -0.5277259067
 H          6.6416064029       -2.8779546947       -0.0425956024
 H          5.8689794363       -2.5980789866       -1.6038939180
 C          5.7755502724       -0.9290269115       -0.2851031455
 H          4.9752294791       -0.4607665093       -0.8618759197
 H          6.7203235351       -0.5336797044       -0.6680226869
 C          5.6516456981       -0.5004710256        1.1761556042
 H          5.8417674782        0.5754955849        1.2202962239
 H          6.4192010041       -0.9983846750        1.7718071144
 C          4.2809646351       -0.7547796186        1.8288688676
 H          4.2058769568       -1.7708497307        2.2097739993
 H          4.1822925880       -0.0779841214        2.6828692468
 H          4.5266202412       -3.2426107100        1.0471811808
 H          4.5846542106       -4.2035095706       -0.4134547424
 H          2.4005662345       -3.3011188001       -0.2427826299
 H          3.2083375950       -2.5907359960       -1.6292668544
 O          1.7089139182       -0.8759484175       -0.9283844771
 C          1.0453740607        0.3391375657       -0.8118036327
 O          0.1504401918        0.5056154408       -1.6568166147
 O          2.7683424031        1.5624766865        2.1200647921
 C          0.7150123359        2.5170769136        0.4270888318
 C         -0.7733989388        2.2923111394        0.3317076475
 C         -1.6070301357        2.9653109523       -0.5502691510
 C         -2.9590303523        2.6702395446       -0.6006603897
 C         -3.5063551979        1.7000884532        0.2174321786
 C         -2.6794739802        1.0195525714        1.1024334791
 C         -1.3305484004        1.3263686683        1.1617887141
 H         -0.6878134472        0.7899155778        1.8499023380
 N         -3.2204470002        0.0090291038        1.9216302828
 S         -4.1192251706       -1.1758399244        1.1481475676
 O         -5.4529315949       -0.6810766612        0.9138647475
 O         -4.0211579759       -2.3401043951        2.0014750316
 C         -3.2960937857       -1.4674428650       -0.4060134292
 C         -2.0313467283       -2.0204455150       -0.3785999560
 C         -1.3642561855       -2.2286177251       -1.5734520665
 C         -1.9684437972       -1.8751173349       -2.7694736629
 C         -3.2378813322       -1.3205854242       -2.7806463716
 C         -3.9114606225       -1.1122652710       -1.5880676747
 H         -4.8996202454       -0.6834420183       -1.5513664325
 H         -3.7015969174       -1.0436237510       -3.7138009004
 H         -1.4386977985       -2.0267519892       -3.6963998824
 H         -0.3694004798       -2.6445859824       -1.5691519972
 H         -1.5888538444       -2.2839082902        0.5700060012
 H         -2.5400842231       -0.4148951833        2.5358027937
 H         -4.5543987012        1.4504317397        0.1824191652
 H         -3.5943961844        3.1979346291       -1.2953694766
 H         -1.1960152248        3.7035940499       -1.2185436570
 H          0.9500811859        2.7916224513        1.4695730715
 C          1.2147908299        3.6605892443       -0.4421996534
 C          2.6212464632        3.6770890784       -0.9598637001
 C          1.4761685889        3.4960896369       -1.9082847161
 H          1.2256906767        4.3141359624       -2.5678057810
 H          1.3093215315        2.5212120067       -2.3381251179
 H          3.1547621210        4.6158470373       -0.9656633924
 H          3.2456189323        2.8229041367       -0.7412220636
 H          0.8123000355        4.6171176823       -0.1229667652
