  62
        -98.93749342
 C          2.4362565310        1.1245457086       -0.0428567683
 C          3.5207996739        0.7646853530        0.7930749902
 C          4.5207110221       -0.1553269752        0.2256523692
 C          4.3523849221       -0.6210271387       -1.0261333735
 C          5.2135006768       -1.5347287560       -1.8729768853
 C          6.3245913953       -2.3693100421       -1.2409761512
 C          5.8420205498       -3.4676057388       -0.2941771378
 H          5.3309725599       -4.2339610361       -0.8823838492
 H          6.7182313577       -3.9304477485        0.1651035983
 C          4.8842283334       -3.0175031467        0.8062560063
 H          3.9575616604       -2.6506054439        0.3598526293
 H          4.6262626794       -3.8959234340        1.4040365257
 C          5.4321572694       -1.9544088502        1.7564559505
 H          4.7169773699       -1.8472522682        2.5764201219
 H          6.3792460069       -2.2929382390        2.1809727244
 C          5.6403446651       -0.5595656481        1.1408663149
 H          6.5975655657       -0.4904621407        0.6297626093
 H          5.6498353310        0.1704772293        1.9553657053
 H          6.8546746862       -2.8545804146       -2.0651082200
 H          7.0426657279       -1.7253217106       -0.7419535417
 H          4.5168462870       -2.2007025247       -2.3919229635
 H          5.6579591882       -0.8943820616       -2.6430309003
 O          3.2871643073       -0.2479987166       -1.7935249745
 C          2.3061193471        0.6153063238       -1.3332729569
 O          1.4034012915        0.8406770273       -2.1618187297
 O          3.6553203525        1.2016150949        1.9672060077
 C          1.3779784573        2.0597935543        0.5178605090
 C          0.1068189039        1.2745005178        0.7271180997
 C         -0.0231148843        0.4877608279        1.8686027661
 C         -1.1574869470       -0.2736803385        2.0760458026
 C         -2.1824812304       -0.2757741532        1.1456065180
 C         -2.0606497821        0.5006695319        0.0016421698
 C         -0.9262675143        1.2779906331       -0.1968190035
 H         -0.8394530190        1.8670823398       -1.0962712734
 N         -3.0822408299        0.4798687393       -0.9617244366
 S         -4.6696874885        0.6903752068       -0.4696788049
 O         -5.3660036293        1.1905777978       -1.6349804068
 O         -4.7513069041        1.5010059094        0.7235123934
 C         -5.2360705058       -0.9619243067       -0.1230317264
 C         -5.1076705276       -1.9157318710       -1.1136179157
 C         -5.5523723665       -3.2040685233       -0.8636290678
 C         -6.1180751512       -3.5144353914        0.3642200374
 C         -6.2434459757       -2.5446936579        1.3470461409
 C         -5.7993449765       -1.2541906454        1.1036581182
 H         -5.8709027411       -0.4692804775        1.8397092728
 H         -6.6837382649       -2.7879404693        2.3007061357
 H         -6.4632695067       -4.5181933247        0.5556899298
 H         -5.4561164958       -3.9608437551       -1.6255374501
 H         -4.6650205839       -1.6340080245       -2.0545980014
 H         -2.8749077590        1.0222059886       -1.7873521938
 H         -3.0683129604       -0.8705481343        1.2977240614
 H         -1.2451727384       -0.8750846189        2.9681169791
 H          0.7836639335        0.4779246399        2.5882728087
 H          1.7540834523        2.3633850385        1.5042794358
 C          1.1990285627        3.2978489707       -0.3352767507
 C          0.4453048685        4.4672514624        0.2221293010
 C          1.9291625616        4.5533086926        0.0317593548
 H          2.3121777143        5.1766879306       -0.7622792718
 H          2.5592779828        4.5272215352        0.9085809538
 H         -0.1932185384        5.0338529376       -0.4386505553
 H          0.0654064082        4.3795558925        1.2289471035
 H          1.0910262788        3.0817555266       -1.3912777386
