  62
        -98.94443594
 C          1.9476845136        1.0902579118       -0.2019878903
 C          2.4289391655       -0.0800713045       -0.8362409160
 C          3.8850357483       -0.2799629763       -0.7855250024
 C          4.6580829261        0.6417770952       -0.1828207987
 C          6.1460353791        0.5376676754       -0.0168683074
 C          6.5109066755       -0.1452071930        1.3087462910
 C          5.7558632393       -1.4505733004        1.5594907709
 H          6.1153817033       -1.8572939797        2.5071751188
 H          4.6934647252       -1.2302165290        1.6864169593
 C          5.9239727344       -2.5034447779        0.4551635212
 H          6.7960017569       -2.2649638626       -0.1548805834
 H          6.1100569082       -3.4733122951        0.9212961043
 C          4.7031778510       -2.6725237937       -0.4513916419
 H          3.8085467656       -2.8186612048        0.1595426213
 H          4.8440882989       -3.5791446110       -1.0460476391
 C          4.4338569509       -1.5218681805       -1.4293795570
 H          3.6662195192       -1.8574203577       -2.1330918722
 H          5.3416796670       -1.2969369688       -1.9930249886
 H          6.2852135597        0.5433041996        2.1262855580
 H          7.5853079086       -0.3375475036        1.3133949376
 H          6.5609732175       -0.0221939689       -0.8526896081
 H          6.5639983392        1.5457234047       -0.0231636124
 O          4.1596186681        1.7648649873        0.3944944988
 C          2.7967079361        2.0111421906        0.4116519876
 O          2.4699060013        3.0640214254        0.9957156643
 O          1.6859383144       -0.9156986855       -1.4143178305
 C          0.4580452944        1.3869744362       -0.1882382738
 C         -0.2871262887        0.2295292007        0.4298393327
 C          0.1065351758       -0.2171387564        1.6896464194
 C         -0.5234547246       -1.2895681909        2.2887057712
 C         -1.5699800187       -1.9329407893        1.6504235646
 C         -1.9765203198       -1.4914692420        0.3979031521
 C         -1.3412134770       -0.4105530395       -0.2012069550
 H         -1.6673375860       -0.1041592925       -1.1802426161
 N         -3.0235589929       -2.1383889230       -0.2775899647
 S         -4.2144977676       -1.2560552592       -1.0481673056
 O         -5.2832880554       -2.2059198905       -1.2651707131
 O         -3.6873996413       -0.6109012839       -2.2225887145
 C         -4.7151867820       -0.0441000177        0.1601377588
 C         -4.2129333406        1.2392615425        0.0950227463
 C         -4.5616555768        2.1446358560        1.0850495143
 C         -5.4001379945        1.7529663019        2.1169460527
 C         -5.9007775195        0.4605275127        2.1652209683
 C         -5.5530549901       -0.4497858207        1.1809467088
 H         -5.9295276960       -1.4598649015        1.1755644027
 H         -6.5569392993        0.1609600360        2.9664543173
 H         -5.6668998822        2.4606836906        2.8859547447
 H         -4.1754870150        3.1508644487        1.0474751445
 H         -3.5674358378        1.5080357595       -0.7245792294
 H         -3.4222284492       -2.9194425573        0.2223810392
 H         -2.0578690780       -2.7779934231        2.1119477444
 H         -0.1998246610       -1.6289238974        3.2612222793
 H          0.9265809518        0.2846398371        2.1859508643
 H          0.3306998365        2.2650589455        0.4616047548
 C         -0.0123693327        1.7432620031       -1.5825665627
 C         -1.1604191553        2.6866267564       -1.7727549832
 C          0.2341780909        3.1273088674       -2.1000683310
 H          0.5104640908        3.2482602506       -3.1367728672
 H          0.7201613854        3.8254549196       -1.4338317409
 H         -1.8486367996        2.5039914571       -2.5851703277
 H         -1.6167702888        3.0992284720       -0.8854032296
 H          0.0988156531        0.9252592350       -2.2856125164
