  62
        -98.94091044
 C         -2.2881599841       -0.5040591422        0.1852943915
 C         -3.5533193227       -1.0407800118        0.5241586206
 C         -4.6589621958       -0.0777065770        0.6050137632
 C         -4.4118192976        1.2260791627        0.3812903942
 C         -5.4543800435        2.3056638586        0.3740650266
 C         -6.0274259465        2.5137285678       -1.0349305724
 C         -6.4586100670        1.2190220688       -1.7240715821
 H         -6.8733155287        1.4913933007       -2.6970391851
 H         -5.5750332296        0.6047381473       -1.9125959981
 C         -7.4904439395        0.3958914958       -0.9403091814
 H         -7.9693447811        1.0227361806       -0.1873176570
 H         -8.2697208931        0.0639975294       -1.6295088740
 C         -6.9246293186       -0.8576908124       -0.2706462214
 H         -6.3630838615       -1.4426197428       -1.0034166539
 H         -7.7640027912       -1.4723236413        0.0651200420
 C         -6.0213460647       -0.6139217569        0.9448487244
 H         -6.5282464188        0.0428604031        1.6545255718
 H         -5.8499846945       -1.5791179469        1.4302818652
 H         -6.8796479796        3.1920052007       -0.9640479199
 H         -5.2627425211        2.9915140274       -1.6518638354
 H         -6.2510145724        2.0391284188        1.0658509862
 H         -4.9893303307        3.2344770445        0.7085330012
 O         -3.1768620590        1.7082795515        0.0854663646
 C         -2.0858344276        0.8589117797       -0.0291795025
 O         -1.0167569540        1.4322358023       -0.3160268890
 O         -3.7463818378       -2.2652124199        0.7524369902
 C         -1.1042775229       -1.4448176195        0.0551099595
 C         -0.0003103127       -1.0219347332        0.9915657671
 C         -0.3021681535       -0.8296589336        2.3377596722
 C          0.6720491061       -0.4240696171        3.2279217902
 C          1.9663149375       -0.1971506523        2.7933819393
 C          2.2829250259       -0.4011834493        1.4560615172
 C          1.3037391707       -0.8241964865        0.5668164997
 H          1.5713527838       -0.9685623943       -0.4652863479
 N          3.6084816309       -0.2281144643        1.0100391779
 S          3.9345158248        0.5891922002       -0.4313888505
 O          3.5388284447        1.9771738445       -0.3242695869
 O          3.3967811247       -0.1536860298       -1.5411173106
 C          5.7140561097        0.4617204066       -0.4387717672
 C          6.2771157594       -0.7655009033       -0.7339741740
 C          7.6569620956       -0.8899703707       -0.7222589996
 C          8.4471211060        0.2088776606       -0.4178950840
 C          7.8680149528        1.4343706840       -0.1261412741
 C          6.4878033652        1.5649751337       -0.1345569483
 H          5.9934981773        2.4990298296        0.0795097779
 H          8.4846322047        2.2874197043        0.1071320845
 H          9.5211056410        0.1097565028       -0.4102482277
 H          8.1109482447       -1.8408083377       -0.9505297449
 H          5.6235458222       -1.5883297687       -0.9719074015
 H          4.1953131416        0.1621847540        1.7371033621
 H          2.7254234934        0.1337139804        3.4863782188
 H          0.4218482228       -0.2726441256        4.2673918772
 H         -1.3175633828       -0.9937517148        2.6730840102
 H         -1.4752754209       -2.4285985809        0.3801637559
 C         -0.6697583703       -1.5436879720       -1.3917673506
 C         -0.0053633004       -2.7881382915       -1.8970096610
 C         -1.4082275597       -2.4657122887       -2.3133062795
 H         -1.5867745217       -2.1450447148       -3.3287830806
 H         -2.2143151405       -3.0467325103       -1.8893145728
 H          0.7860988703       -2.6856393064       -2.6241674501
 H          0.1416066935       -3.5943860376       -1.1944240813
 H         -0.3408422725       -0.5913022954       -1.7952755556
