  62
        -98.93591520
 C          2.5162987548        0.9110688586        0.3571110415
 C          3.0088539401       -0.1231690990        1.1935029567
 C          3.7811519659       -1.1838266149        0.5337924500
 C          3.9492874785       -1.1386288890       -0.8001957574
 C          4.6749808975       -2.1736302752       -1.6092140757
 C          3.7169866840       -3.2646992972       -2.1072741460
 C          2.8144934692       -3.8391361631       -1.0153594229
 H          2.1320836119       -3.0584628533       -0.6710537547
 H          2.2040919886       -4.6191721593       -1.4753594592
 C          3.5673938705       -4.4219622355        0.1889011086
 H          3.1201762717       -5.3834688440        0.4496739131
 H          4.6070488180       -4.6111155724       -0.0805321429
 C          3.5210692507       -3.5535118636        1.4475149733
 H          3.8886914975       -4.1505914794        2.2862746036
 H          2.4854997817       -3.2827968353        1.6684472836
 C          4.3557338412       -2.2673140567        1.4027863504
 H          5.3777561720       -2.5023779723        1.0984250512
 H          4.3849507795       -1.8555508347        2.4159396556
 H          4.3090856858       -4.0665498777       -2.5520679000
 H          3.0819396467       -2.8378240733       -2.8870195259
 H          5.1282456100       -1.6799779764       -2.4705083591
 H          5.4617265381       -2.6156188982       -1.0007040023
 O          3.4267051455       -0.1567858228       -1.5760374375
 C          2.6889129848        0.8870279132       -1.0281870450
 O          2.2614565745        1.6941371114       -1.8725358035
 O          2.8086446075       -0.1586504452        2.4376142344
 C          1.7267846263        2.0275539866        1.0170797851
 C          0.4346246240        2.2662561952        0.2769612947
 C          0.1345162332        3.4510874513       -0.3804576352
 C         -1.0710586657        3.5952592296       -1.0448340333
 C         -1.9981643754        2.5704574364       -1.0684551581
 C         -1.7109531993        1.3813522035       -0.4100175587
 C         -0.5057654034        1.2427482924        0.2623016391
 H         -0.2782812448        0.3157295135        0.7753519910
 N         -2.6380664376        0.3212709380       -0.4428050778
 S         -4.2647332691        0.7128074480       -0.2030904029
 O         -4.8038113651        1.2111627346       -1.4432926103
 O         -4.4010153709        1.5871230053        0.9407418707
 C         -4.9580293574       -0.8896771062        0.1515809287
 C         -5.1520784989       -1.2688559641        1.4662502701
 C         -5.6767810035       -2.5241960008        1.7310609062
 C         -5.9935944507       -3.3749923492        0.6827693327
 C         -5.7926040344       -2.9801627270       -0.6316733343
 C         -5.2699748131       -1.7259112955       -0.9036332307
 H         -5.1066132215       -1.3724925868       -1.9083026837
 H         -6.0427280239       -3.6436098781       -1.4437324058
 H         -6.4027867840       -4.3507900519        0.8917058726
 H         -5.8369884313       -2.8327308077        2.7516116619
 H         -4.9005474787       -0.5714752915        2.2493149799
 H         -2.3609564231       -0.4416827688        0.1599817179
 H         -2.9394771222        2.6749479486       -1.5833842378
 H         -1.2906481297        4.5195354173       -1.5581190917
 H          0.8532761991        4.2536581842       -0.3929063165
 H          1.4732824986        1.6268949767        2.0132597536
 C          2.5245179944        3.2996914317        1.2611195506
 C          3.9992444895        3.2438943824        1.5227944244
 C          3.4856446663        3.8611454861        0.2583927849
 H          3.5440826620        4.9348323392        0.1534789783
 H          3.6138117243        3.3259143059       -0.6690352137
 H          4.4109738848        3.8904056128        2.2831211749
 H          4.4814985647        2.2790796270        1.4613294071
 H          1.9605285660        4.0190319961        1.8475309793
