  62
        -98.94128790
 C         -2.7006696384       -0.2442520250       -0.2504962769
 C         -2.2808645768       -1.0337194360        0.8492911222
 C         -1.7720017298       -2.3762386399        0.5157808327
 C         -1.7219406644       -2.7727343095       -0.7671734658
 C         -1.2112142907       -4.1030367903       -1.2403768600
 C          0.2830873065       -4.0517270292       -1.5827898448
 C          1.1522630098       -3.4244262111       -0.4922237845
 H          2.1909197697       -3.5016848206       -0.8235400465
 H          0.9256629214       -2.3577676909       -0.4189131570
 C          1.0097378801       -4.0722006095        0.8917725212
 H          2.0059782185       -4.1903730273        1.3232936336
 H          0.5763896349       -5.0688882406        0.7927165564
 C          0.1889704767       -3.2560141403        1.8925573177
 H          0.3605237954       -3.6697761278        2.8904732449
 H          0.5470253191       -2.2228968183        1.9001182604
 C         -1.3274646483       -3.2438459969        1.6594980407
 H         -1.6893219373       -4.2668247536        1.5305139574
 H         -1.7967093501       -2.8218476987        2.5533455581
 H          0.6240327683       -5.0700977776       -1.7811938273
 H          0.4097358756       -3.4635404765       -2.4946274167
 H         -1.7692614537       -4.3812895267       -2.1365213819
 H         -1.3911092104       -4.8473751214       -0.4666751238
 O         -2.1276881784       -1.9860594175       -1.7976367853
 C         -2.5934716025       -0.7049033717       -1.5651368692
 O         -2.9076875643       -0.0799807602       -2.6000512725
 O         -2.3360977180       -0.6709042670        2.0523698484
 C         -3.1891906514        1.1917622680       -0.1279561213
 C         -2.0393375522        2.1305752610       -0.3978861188
 C         -2.1964750966        3.2657602940       -1.1846217432
 C         -1.1168838242        4.0881858566       -1.4552094180
 C          0.1432027922        3.7776449084       -0.9761461897
 C          0.3097096147        2.6435955463       -0.1900474444
 C         -0.7829041790        1.8474689012        0.1157951712
 H         -0.6359344498        0.9757995287        0.7358272400
 N          1.5708856304        2.2629850719        0.3008385460
 S          1.9006868533        0.6003200735        0.2245856090
 O          1.3346754963        0.0491561118       -0.9853365033
 O          1.5019131328       -0.0077392033        1.4673432219
 C          3.6810735059        0.6221662997        0.1221006971
 C          4.4160520916        0.7055066469        1.2895289181
 C          5.7984016684        0.7624082265        1.2076826209
 C          6.4187968708        0.7364051804       -0.0325878754
 C          5.6678559707        0.6501526295       -1.1954295718
 C          4.2849008917        0.5939909745       -1.1206932433
 H          3.6596039692        0.5165945071       -1.9959527419
 H          6.1526801500        0.6259801891       -2.1580272526
 H          7.4946260420        0.7806755950       -0.0936890006
 H          6.3852704522        0.8261551847        2.1096719001
 H          3.8886592057        0.7133525648        2.2291678739
 H          2.3256596370        2.8092535135       -0.0927080578
 H          0.9919857475        4.4006495391       -1.2143400937
 H         -1.2523432088        4.9664193400       -2.0680212598
 H         -3.1661781320        3.4867027611       -1.6061031807
 H         -3.9185246342        1.3284528816       -0.9439943919
 C         -3.9063524628        1.4967807919        1.1780335448
 C         -3.2763302986        2.2729008891        2.2910698783
 C         -4.3689830024        2.8926405820        1.4760315183
 H         -5.3396118038        3.0258483704        1.9289475248
 H         -4.0920281759        3.6709757461        0.7815855611
 H         -3.4868331068        1.9574894804        3.3012881201
 H         -2.2663425985        2.6269445878        2.1513504339
 H         -4.5702453746        0.6906109340        1.4709814367
