  62
        -98.93522995
 C          2.3527641393        1.4016261918        0.0173545036
 C          3.0110211578        0.6442879808        1.0177593117
 C          3.8249700652       -0.5056119156        0.5808983807
 C          3.9008010203       -0.7765735324       -0.7348871029
 C          4.6292574983       -1.9024600307       -1.4196603967
 C          3.9004064833       -3.2482747332       -1.2827925223
 C          3.3815598986       -3.5568183172        0.1191552256
 H          2.6873367402       -2.7715286447        0.4259152061
 H          2.8070101218       -4.4854216138        0.0624660415
 C          4.4582071710       -3.7361014517        1.1872798160
 H          5.1312952165       -4.5410786892        0.8841566494
 H          3.9527721595       -4.0526974027        2.1031277298
 C          5.2952878185       -2.4966521048        1.5128403171
 H          5.8218515817       -2.6982380202        2.4501062322
 H          6.0601454146       -2.3284504184        0.7594409886
 C          4.4859052244       -1.2227909332        1.7331048939
 H          3.6905463660       -1.4230596591        2.4601525633
 H          5.1311086116       -0.4763164227        2.2116618631
 H          3.0415977960       -3.2396232723       -1.9591215441
 H          4.5769099765       -4.0413024781       -1.6062914414
 H          5.6457038701       -1.9738225890       -1.0443095715
 H          4.6822352503       -1.6423555217       -2.4792717134
 O          3.2458209364       -0.0258085723       -1.6647130731
 C          2.4526178485        1.0591210295       -1.3302439994
 O          1.9171329114        1.6065840454       -2.3140248912
 O          2.9272154348        0.9210776143        2.2448535984
 C          1.5154583663        2.5771575057        0.4929100155
 C          0.0851966473        2.1456478510        0.6921698352
 C         -0.5596977450        2.3188529819        1.9104632147
 C         -1.8595427362        1.8764160169        2.0884230937
 C         -2.5394335173        1.2512380017        1.0584370691
 C         -1.9015936134        1.0705398648       -0.1619124268
 C         -0.6031308789        1.5203856705       -0.3394043161
 H         -0.1111437217        1.3735280048       -1.2904293684
 N         -2.5825551185        0.4138979133       -1.2122325716
 S         -2.8983608930       -1.2170873703       -0.9258682972
 O         -1.9042723324       -1.7978837113       -0.0505777348
 O         -3.0375606859       -1.8216741004       -2.2327783801
 C         -4.4859135659       -1.1959389661       -0.1208396949
 C         -5.5640238019       -0.6941802440       -0.8238219759
 C         -6.8065593989       -0.6652313171       -0.2111431141
 C         -6.9492103991       -1.1376386298        1.0852891917
 C         -5.8574997404       -1.6412545537        1.7760098870
 C         -4.6112046438       -1.6719695176        1.1694256825
 H         -3.7321662099       -2.0483185888        1.6678236468
 H         -5.9701390897       -2.0082495439        2.7834976813
 H         -7.9172533914       -1.1136267884        1.5602439500
 H         -7.6579231356       -0.2748441932       -0.7449420183
 H         -5.4086249294       -0.3428905341       -1.8301935092
 H         -2.0968362163        0.5002170242       -2.0953370983
 H         -3.5502898443        0.9015295357        1.1909783825
 H         -2.3471449384        2.0162214719        3.0409414221
 H         -0.0275960046        2.7855900324        2.7263526084
 H          1.9260179681        2.8265217793        1.4840204551
 C          1.6597940576        3.8125876113       -0.3850141597
 C          0.5483126408        4.3835328632       -1.2091607742
 C          1.0037128923        5.0980415354        0.0253430067
 H          1.5565198424        6.0190139561       -0.0795468479
 H          0.3527039710        5.0663337882        0.8860243146
 H          0.8046959593        4.7920694238       -2.1748155404
 H         -0.4116343912        3.8922687138       -1.1884585199
 H          2.6551247440        3.8892137970       -0.8109694623
