  62
        -98.94075225
 C          2.0181064115        1.3409511047        0.3700033634
 C          2.4945886184        0.6341432830       -0.7621080724
 C          3.6950225844       -0.1899191389       -0.5436421053
 C          4.2544699464       -0.2400360845        0.6780396500
 C          5.4433743355       -1.0783334871        1.0465921965
 C          5.0108340316       -2.4584657389        1.5611278859
 C          3.9953674248       -3.1630181922        0.6610923054
 H          3.0584056758       -2.6007919646        0.6692591284
 H          3.7870031664       -4.1383296296        1.1065776169
 C          4.4571094467       -3.3523806770       -0.7906543951
 H          4.2166599789       -4.3705389402       -1.1039270524
 H          5.5404280690       -3.2421741057       -0.8518540798
 C          3.7941955172       -2.4090431575       -1.7964491490
 H          2.7081162446       -2.4470844397       -1.6758638087
 H          4.0225338788       -2.7710618282       -2.8024796656
 C          4.2359383207       -0.9416777819       -1.7270466840
 H          3.8388409051       -0.4353813646       -2.6117872808
 H          5.3259004293       -0.8834348921       -1.7570568476
 H          4.5637457295       -2.3351870786        2.5503968906
 H          5.9001246241       -3.0824619048        1.6661320565
 H          6.0875887987       -1.1886534149        0.1765703360
 H          5.9963895562       -0.5641105149        1.8345260560
 O          3.7572426182        0.4357560739        1.7454732426
 C          2.6200625938        1.2183523915        1.6246199620
 O          2.2429679316        1.7396646179        2.6934714627
 H         -0.2160177590       -0.1591929609        0.9385627835
 C         -0.7099146386        0.2330930965        0.0571120266
 C         -0.3198494712        1.4723867413       -0.4381159146
 C         -0.9636818584        1.9667480923       -1.5637829748
 C         -1.9506793890        1.2239011433       -2.1891331467
 C         -2.3202801152       -0.0173885711       -1.7068599409
 C         -1.6903279704       -0.5164201002       -0.5731661553
 N         -2.0640029393       -1.7736545745       -0.0686456216
 S         -3.6957297339       -2.1297725211        0.0276831838
 O         -3.8103825581       -3.0847855782        1.1078373631
 O         -4.1742012194       -2.5751271808       -1.2572609720
 C         -4.4866211030       -0.5914241887        0.4655565577
 C         -5.4171844581       -0.0272150319       -0.3827587383
 C         -5.9945603368        1.1834337604       -0.0342309600
 C         -5.6295787652        1.8073964790        1.1483422805
 C         -4.6955076142        1.2259014105        1.9923255313
 C         -4.1170937329        0.0147196209        1.6500273923
 H         -3.3919857416       -0.4657422064        2.2876042483
 H         -4.4128240706        1.7119423595        2.9124160999
 H         -6.0754095051        2.7521035178        1.4166523525
 H         -6.7228530478        1.6368928679       -0.6869869763
 H         -5.6692367376       -0.5450328900       -1.2938033285
 H         -1.5775664845       -2.0426510548        0.7732723881
 H         -3.0705817975       -0.6162190782       -2.1971582632
 H         -2.4333015888        1.6143702690       -3.0719451333
 H         -0.6735638633        2.9208503936       -1.9710183173
 C          0.7719119925        2.2078605896        0.3007072867
 H          0.4483644192        2.3186086652        1.3491603419
 C          1.0164552351        3.6152931139       -0.2229005723
 C          2.3555043817        4.2725321684       -0.0751188294
 C          1.8553732790        3.8883540253       -1.4336098715
 H          1.5447055025        4.6761444684       -2.1043998348
 H          2.3049974610        3.0438327456       -1.9306567163
 H          3.1545971471        3.6904759572        0.3611186289
 H          2.3862785964        5.3193258771        0.1877711772
 H          0.1525106878        4.2557826108       -0.0749467155
 O          1.9577768660        0.6777370906       -1.8980328285
