  62
        -98.92989358
 C         -2.4290008723       -1.0421292484        0.5432008183
 C         -2.5629201220        0.2773674088        1.0398470427
 C         -3.8380429955        0.9760919248        0.7887229632
 C         -4.8083564670        0.3231434506        0.1229042886
 C         -6.1698881995        0.8255539554       -0.2787184169
 C         -6.1189543888        1.7804896283       -1.4819175589
 C         -5.0104749869        2.8281643744       -1.4235585493
 H         -4.0447521055        2.3255706513       -1.3414762309
 H         -5.0141300329        3.3688555273       -2.3736985072
 C         -5.1445775603        3.8554279671       -0.3019342624
 H         -4.3467159838        4.5899854436       -0.4385299703
 H         -6.0983016951        4.3775728605       -0.4059513121
 C         -5.0433557453        3.3075162306        1.1233161624
 H         -5.9692794359        2.8265227079        1.4268798070
 H         -4.9040459600        4.1625230797        1.7913574981
 C         -3.8627509117        2.3716653247        1.3640424464
 H         -3.7312957333        2.2453517851        2.4457558784
 H         -2.9414154105        2.8566326717        1.0204473562
 H         -7.0871917801        2.2760810733       -1.5698087014
 H         -5.9626519132        1.1812404211       -2.3820806160
 H         -6.7567833266       -0.0526091910       -0.5566191964
 H         -6.6587944802        1.2961470257        0.5690866402
 O         -4.6414508534       -0.9507651058       -0.3288129370
 C         -3.4671926475       -1.6649185596       -0.1504282499
 O         -3.4975391900       -2.8059556744       -0.6449680320
 O         -1.6458623720        0.8610429577        1.6823092192
 C         -1.1087807341       -1.7414512074        0.8096811337
 C         -0.1400391914       -1.5352497072       -0.3272027719
 C         -0.5122757540       -1.7732717420       -1.6468988756
 C          0.3936129765       -1.5809257416       -2.6736743914
 C          1.6799169388       -1.1464003214       -2.4071109975
 C          2.0642630896       -0.9104330528       -1.0919612825
 C          1.1525618390       -1.1059083918       -0.0630996741
 H          1.4552689254       -0.8986054212        0.9522834210
 N          3.3803307072       -0.5152314499       -0.7977958345
 S          3.6601276173        0.5560440940        0.4778310271
 O          3.5579802365       -0.1663608245        1.7203834706
 O          2.8248417541        1.7274179314        0.3364580898
 C          5.3661240667        0.9686382745        0.1639957347
 C          5.6735302398        2.1511987432       -0.4815971568
 C          7.0024143618        2.4464348817       -0.7431992657
 C          7.9952340734        1.5575440782       -0.3595814815
 C          7.6711672731        0.3747137222        0.2885478096
 C          6.3448578284        0.0741598990        0.5545018656
 H          6.0459273292       -0.8270201299        1.0638069064
 H          8.4461642449       -0.3123217079        0.5877329785
 H          9.0284189714        1.7894832272       -0.5644573515
 H          7.2574808559        3.3667400747       -1.2435146721
 H          4.8686380304        2.8153735910       -0.7530892722
 H          3.8911037896       -0.2315403904       -1.6234524471
 H          2.3832395644       -0.9937211644       -3.2115834427
 H          0.0929025104       -1.7671906864       -3.6937938060
 H         -1.5151462958       -2.1141579824       -1.8555334421
 H         -0.6901818649       -1.2236264404        1.6885310765
 C         -1.2696202627       -3.2087016754        1.1849306700
 C         -0.8365841195       -4.3410499935        0.3079360341
 C         -0.0620227321       -4.0213012770        1.5488232991
 H         -0.1256677525       -4.6937859244        2.3908407477
 H          0.9031270908       -3.5505522987        1.4308794114
 H         -1.4571490274       -5.2237353159        0.2930752302
 H         -0.3920716441       -4.1066801818       -0.6460942937
 H         -2.1645540004       -3.3762608908        1.7759218658
