  62
        -98.94132392
 C         -0.9010698780       -1.1030008920        0.7540921819
 C         -1.4450521281       -0.8713302803       -0.5311585781
 C         -2.1877471532        0.3895647841       -0.7045292585
 C         -2.2967515873        1.2405950359        0.3294661931
 C         -2.9715839030        2.5900408628        0.3703717135
 C         -4.3295145669        2.7253029651       -0.3319527626
 C         -5.2049545166        1.4639267337       -0.3030117806
 H         -4.7882703556        0.7345312820        0.3934187387
 H         -6.1993953420        1.7309528935        0.0590976560
 C         -5.3658178079        0.8174941175       -1.6810635275
 H         -6.2557680610        0.1837017280       -1.6706196206
 H         -5.5336995181        1.6043339660       -2.4197521615
 C         -4.1959363545       -0.0539202720       -2.1376161636
 H         -4.3797044550       -0.3505660536       -3.1730945206
 H         -4.1616972918       -0.9709487216       -1.5432275025
 C         -2.8089574379        0.6041169201       -2.0536574445
 H         -2.1484429790        0.1045948544       -2.7684457929
 H         -2.8539029230        1.6594704912       -2.3136554880
 H         -4.1747801157        3.0258763961       -1.3673522111
 H         -4.8568798445        3.5460571673        0.1573058266
 H         -2.2809477689        3.3306780638       -0.0451506960
 H         -3.0880056247        2.8165980476        1.4330476296
 O         -1.7411062525        0.9825189413        1.5480053406
 C         -1.0216945786       -0.1759749846        1.7862395516
 O         -0.5481939226       -0.2611319209        2.9373760068
 O         -1.3189143248       -1.6764459066       -1.4901415164
 C         -0.0964089721       -2.3611763007        1.0222148891
 C          1.0931663049       -2.4154234476        0.0937889786
 C          1.5311003749       -3.5799963500       -0.5236093838
 C          2.6281261111       -3.5532807401       -1.3675068921
 C          3.2998200381       -2.3718221432       -1.6228480270
 C          2.8755936713       -1.2030075998       -1.0012602004
 C          1.7960654569       -1.2396321808       -0.1352349540
 H          1.4736360823       -0.3292619630        0.3492809728
 N          3.5330910375        0.0190404793       -1.2142105517
 S          2.6226756365        1.4171725240       -1.3568463219
 O          1.3529343968        1.1740161343       -1.9998519972
 O          3.5056550056        2.3470152207       -2.0319803725
 C          2.3763653695        1.9778266235        0.3134135726
 C          1.1205248229        2.4069057937        0.6925914150
 C          0.9283268061        2.8686957794        1.9843616524
 C          1.9943725462        2.8941571861        2.8696582931
 C          3.2518800221        2.4656323719        2.4719460840
 C          3.4502896597        2.0044061740        1.1805278232
 H          4.4115133247        1.6612885461        0.8360506235
 H          4.0760971573        2.4861328893        3.1666492111
 H          1.8393542597        3.2460786619        3.8772587980
 H         -0.0532751822        3.1876016932        2.2965478021
 H          0.3162059337        2.3484765395       -0.0255200499
 H          4.2798337297       -0.0109065418       -1.8935309340
 H          4.1415564494       -2.3493352234       -2.2982450570
 H          2.9560384410       -4.4640081280       -1.8454572016
 H          1.0087932419       -4.5068983155       -0.3518266163
 H          0.2799176307       -2.2670105140        2.0519610255
 C         -0.9839322814       -3.5858709238        0.9368225949
 C         -0.6983127578       -4.7899790980        1.7818188029
 C         -1.8725853002       -3.9145416544        2.0975353068
 H         -2.8659158701       -4.2875528674        1.8978018576
 H         -1.8142902779       -3.2696218811        2.9625209117
 H         -0.8886250527       -5.7682650418        1.3666338013
 H          0.1547728591       -4.7473886366        2.4418715544
 H         -1.3836187078       -3.7392852700       -0.0591045081
