  62
        -98.93221831
 C         -1.9012801448        1.2438943180        0.1599422578
 C         -2.3226307294        0.0327073340        0.7588592153
 C         -3.5051059597       -0.6198162332        0.1525509759
 C         -4.1147902995       -0.0589032574       -0.9063613786
 C         -5.2924517666       -0.5162278839       -1.7423520936
 C         -6.2158603735       -1.6287269101       -1.2525060695
 C         -7.0507334330       -1.2729775282       -0.0229600615
 H         -7.7880624479       -0.5190267225       -0.3098395304
 H         -7.5938294115       -2.1671399426        0.2907331539
 C         -6.2694802980       -0.7232612581        1.1678621356
 H         -6.9837132349       -0.5161756070        1.9694325680
 H         -5.8067849486        0.2275831977        0.8957790066
 C         -5.1961607837       -1.6527996655        1.7312932021
 H         -5.6366114267       -2.6231269837        1.9688780778
 H         -4.8353633914       -1.2122160827        2.6646515696
 C         -3.9724517857       -1.8782264554        0.8260347404
 H         -3.1435156807       -2.2154022490        1.4558942978
 H         -4.1598618261       -2.6587785472        0.0921878788
 H         -5.6497772724       -2.5389834593       -1.0776462656
 H         -6.9088492577       -1.8399328794       -2.0715642272
 H         -4.8707948453       -0.8171323030       -2.7078918596
 H         -5.8865098545        0.3831747855       -1.9331139204
 O         -3.6662567230        1.1098465361       -1.4530339030
 C         -2.5673173956        1.7759134288       -0.9464969550
 O         -2.2862250440        2.8299528222       -1.5517853459
 O         -1.7660783697       -0.5046788911        1.7489380790
 C         -0.6906716286        2.0493667944        0.6057337730
 C          0.4918411142        1.7245659379       -0.2722329200
 C          1.2363413065        2.7446792342       -0.8547736317
 C          2.3046757369        2.4573739126       -1.6848431563
 C          2.6632862830        1.1444746874       -1.9301969396
 C          1.9292693709        0.1169888224       -1.3493062240
 C          0.8445857764        0.4072372888       -0.5342401258
 H          0.2783003248       -0.4040559185       -0.1016035925
 N          2.2830334570       -1.2354864368       -1.5594243944
 S          2.9664782562       -2.0135549975       -0.2406936339
 O          3.3474522440       -3.3237439138       -0.7191695112
 O          2.0604250807       -1.9626877976        0.8745876792
 C          4.4302056216       -1.0527396515        0.1088377422
 C          5.6368248196       -1.4451170293       -0.4371350804
 C          6.7568172499       -0.6572245753       -0.2250769583
 C          6.6485284815        0.5101137779        0.5156362669
 C          5.4293343146        0.8922386237        1.0541750463
 C          4.3063848204        0.1059432890        0.8497548378
 H          3.3442633796        0.3683123698        1.2593350553
 H          5.3448125094        1.7988795057        1.6312481097
 H          7.5195281368        1.1254820125        0.6766012781
 H          7.7068711471       -0.9539762790       -0.6393498819
 H          5.6735807051       -2.3623213341       -1.0025923596
 H          2.8831440357       -1.3713484713       -2.3621723234
 H          3.4987081393        0.9122670604       -2.5737597916
 H          2.8647342433        3.2600144627       -2.1389683015
 H          0.9548539790        3.7705238368       -0.6686914316
 H         -0.9547294636        3.1019495440        0.4093248998
 C         -0.3716887033        1.9480377653        2.0889335099
 C          0.6459207556        1.0134113153        2.6610350622
 C          0.9302697840        2.4827345364        2.6114302900
 H          0.9259866447        3.0391562272        3.5364249795
 H          1.6500196897        2.8321011545        1.8860755642
 H          0.4174258330        0.5573726535        3.6125415039
 H          1.1644930841        0.3426707017        1.9936655914
 H         -1.2531693943        2.1221795977        2.6978738823
