  62
        -98.94267536
 C          1.3951913427        1.1149267159       -0.7792854206
 C          1.0269565836        1.9460884911        0.3040172938
 C         -0.2299595098        2.7014453381        0.1517653416
 C         -0.9765369960        2.5246488709       -0.9512221447
 C         -2.2626054917        3.2061106836       -1.3525518563
 C         -3.3060376338        3.4822923366       -0.2647645288
 C         -3.4245963423        2.3980744744        0.8161669408
 H         -4.4714211866        2.1035173651        0.9154549176
 H         -2.8623944300        1.5054619545        0.5343006905
 C         -2.9295880654        2.8628550064        2.1867765895
 H         -3.3663828368        2.2166628069        2.9520958874
 H         -3.2807531041        3.8811925746        2.3710865285
 C         -1.4137758419        2.8058814796        2.3620588332
 H         -1.1700100159        3.1966205855        3.3534417482
 H         -1.0904316453        1.7611496746        2.3358909699
 C         -0.6024089068        3.5814597209        1.3099971997
 H         -1.1315395099        4.4748179652        0.9851664619
 H          0.3420131525        3.8850769215        1.7702850244
 H         -4.2656610340        3.5946785677       -0.7729357430
 H         -3.0911179803        4.4369910264        0.2131937337
 H         -2.0023213488        4.1498773096       -1.8419967066
 H         -2.6991326925        2.5601264750       -2.1187038468
 O         -0.6079361514        1.6688231887       -1.9483444460
 C          0.5683423760        0.9425241127       -1.8865033098
 O          0.7606781098        0.1893834114       -2.8630158776
 H          0.5583653084       -1.2378344563       -0.2027207081
 C          1.3199416733       -1.3905964098        0.5483849211
 C          2.5182118345       -0.6954573635        0.4463060279
 C          3.4978820218       -0.9184305864        1.4040479673
 C          3.2596344029       -1.7902704775        2.4534619180
 C          2.0439816855       -2.4371524946        2.5806063703
 C          1.0625132328       -2.2304390758        1.6174486293
 N         -0.1879222407       -2.8627962465        1.6920387822
 S         -1.5459516539       -2.0289204936        1.1739200531
 O         -1.4390470128       -0.6113924098        1.4227462385
 O         -2.6494441976       -2.7025822539        1.8289391812
 C         -1.6366921365       -2.3555320655       -0.5728083475
 C         -2.0595612685       -1.3514783402       -1.4198218708
 C         -2.1527056318       -1.6099407136       -2.7774249265
 C         -1.8279106641       -2.8671020557       -3.2612050629
 C         -1.4139295493       -3.8691952391       -2.3967762712
 C         -1.3179692782       -3.6157590673       -1.0381709379
 H         -0.9932435590       -4.3674110839       -0.3381648519
 H         -1.1608648246       -4.8450757039       -2.7789937201
 H         -1.8940323406       -3.0629777452       -4.3197529800
 H         -2.4623753379       -0.8253229816       -3.4488604764
 H         -2.2863990392       -0.3806906861       -1.0065938799
 H         -0.3601796717       -3.3794416678        2.5421890152
 H          1.8507610098       -3.0911617585        3.4172637821
 H          4.0261174878       -1.9521531627        3.1962244789
 H          4.4407207889       -0.4006733693        1.3386432726
 C          2.6574947631        0.2727355889       -0.7039177764
 H          2.6901628095       -0.3080912518       -1.6376221451
 C          3.8915964001        1.1447449561       -0.6240075379
 C          5.2016136110        0.6445367585       -1.1523783653
 C          4.4567248078        1.7161647793       -1.8884546937
 H          4.8452639220        2.7232586035       -1.8701394621
 H          3.9635947241        1.4555328133       -2.8137788148
 H          5.2216752764       -0.3446329480       -1.5840934580
 H          6.1064281614        0.9179241650       -0.6308770265
 H          3.8991569851        1.7754877115        0.2571233264
 O          1.7240398192        2.0754876120        1.3442601505
