  62
        -98.94074654
 C          2.0438266309        1.3360242433        0.3773560459
 C          2.5083254852        0.6331340106       -0.7622427430
 C          3.7158107280       -0.1851806754       -0.5614854235
 C          4.2915354508       -0.2353366678        0.6525484537
 C          5.4900737073       -1.0677384524        1.0028282584
 C          5.0725072538       -2.4517342713        1.5193293282
 C          4.0481928140       -3.1594301029        0.6318546552
 H          3.1084360073       -2.6022729978        0.6546330524
 H          3.8513216731       -4.1368931185        1.0778463056
 C          4.4904063828       -3.3430855967       -0.8266893438
 H          4.2500957857       -4.3615480464       -1.1390890025
 H          5.5722706803       -3.2278549191       -0.9027897278
 C          3.8092150033       -2.4004570399       -1.8208449392
 H          2.7251059826       -2.4438715440       -1.6852701773
 H          4.0252909384       -2.7589815487       -2.8308274665
 C          4.2449652076       -0.9312179303       -1.7537803021
 H          3.8339239021       -0.4247385196       -2.6320193919
 H          5.3341519297       -0.8676921996       -1.7978439172
 H          4.6388501485       -2.3337521372        2.5151906236
 H          5.9666650287       -3.0710454323        1.6098678966
 H          6.0508705807       -0.5524099430        1.7845310178
 H          6.1230151494       -1.1720458590        0.1238155028
 O          3.8044491436        0.4348945463        1.7281497998
 C          2.6622599661        1.2125938276        1.6238763556
 O          2.2967175072        1.7293759296        2.6989951138
 O          1.9565987600        0.6759836669       -1.8909337822
 C          0.7942795041        2.1995959345        0.3258183277
 C         -0.3043924240        1.4611331099       -0.3993255409
 C         -0.9384496323        1.9375905307       -1.5382234442
 C         -1.9278674520        1.1896347703       -2.1533412045
 C         -2.3111852968       -0.0377439245       -1.6464000234
 C         -1.6933422645       -0.5170073427       -0.4976025445
 C         -0.7079776422        0.2364883782        0.1205951223
 H         -0.2213718219       -0.1414001774        1.0122907152
 N         -2.0823501003       -1.7573749785        0.0341390195
 S         -3.7124574729       -2.1260935346        0.0856944286
 O         -3.8564459834       -3.0400848517        1.1975586820
 O         -4.1400761043       -2.6269505990       -1.1968870265
 C         -4.5394982446       -0.5835256840        0.4341768513
 C         -4.1941074048        0.0974115803        1.5847730517
 C         -4.8096337058        1.3080726213        1.8574222026
 C         -5.7568400289        1.8140311148        0.9801075351
 C         -6.0974461836        1.1154022124       -0.1674531866
 C         -5.4826284917       -0.0947236155       -0.4466063352
 H         -5.7140824727       -0.6689697602       -1.3289405432
 H         -6.8360135991        1.5098610249       -0.8464631569
 H         -6.2319722355        2.7582283120        1.1944631281
 H         -4.5455793149        1.8524980441        2.7499119966
 H         -3.4576188731       -0.3239965220        2.2503584327
 H         -1.6162324044       -2.0065920487        0.8933203205
 H         -3.0623149073       -0.6410455660       -2.1299216260
 H         -2.4016829972        1.5645826933       -3.0475666574
 H         -0.6371199384        2.8800614522       -1.9640104034
 H          0.4847453174        2.3087964980        1.3785926446
 C          1.0275206425        3.6078944148       -0.2001996609
 C          2.3576559670        4.2799983959       -0.0393495061
 C          1.8757104219        3.8889500831       -1.4024721980
 H          1.5629651708        4.6725667308       -2.0771576848
 H          2.3403177139        3.0495618175       -1.8943827632
 H          2.3745317283        5.3273385194        0.2225109218
 H          3.1581704331        3.7069191632        0.4060852591
 H          0.1547203602        4.2385209492       -0.0620819400
