  62
        -98.94267946
 C         -1.5689772370       -1.3876213890       -0.2824027849
 C         -0.4561462032       -1.6995199204       -1.0932786509
 C          0.6327105386       -2.4657534903       -0.4633379561
 C          0.5412302151       -2.7826733706        0.8417861630
 C          1.4705462667       -3.5576065685        1.7534018675
 C          2.8494621913       -3.9941280800        1.2691053600
 C          3.8563194007       -2.8528619679        1.1202587008
 H          4.1433086918       -2.5172565922        2.1202510702
 H          4.7507841984       -3.2437561953        0.6303109826
 C          3.3666533056       -1.6255936996        0.3543978277
 H          4.1679422165       -0.8819353187        0.3799206814
 H          2.5069681297       -1.1826110658        0.8642918110
 C          3.0111785044       -1.8669442785       -1.1103622688
 H          2.7857215134       -0.8947878923       -1.5578428910
 H          3.8730911884       -2.2873541024       -1.6327165139
 C          1.8023882828       -2.7827327505       -1.3519811223
 H          1.4565142964       -2.6174009171       -2.3768212935
 H          2.0798891779       -3.8303876746       -1.2651339258
 H          2.7596527215       -4.5569748183        0.3446281561
 H          3.2427998813       -4.6827436471        2.0218704128
 H          1.5828043837       -2.9439981618        2.6536954515
 H          0.9078707203       -4.4475631645        2.0567147544
 O         -0.5469769049       -2.4399731976        1.5922937445
 C         -1.6042707519       -1.7178454575        1.0707698214
 O         -2.5026719839       -1.4527553641        1.8936952005
 H         -0.6179788045        0.9604040098       -0.2777443086
 C         -1.5298165671        1.4164570736        0.0792571849
 C         -2.7401868102        0.7711276172       -0.1441579553
 C         -3.9060776423        1.3686049435        0.3143442614
 C         -3.8482155176        2.5621082620        1.0146657290
 C         -2.6369632343        3.1722833993        1.2820482922
 C         -1.4649376462        2.5895536165        0.8104228957
 N         -0.2169397381        3.1877094057        1.0392695185
 S          1.1856516156        2.2911514676        1.1922650550
 O          0.9337834052        0.9379638800        1.6325006562
 O          2.0350603405        3.0833496083        2.0586265178
 C          1.9166428641        2.2790734632       -0.4342578025
 C          1.2150127071        2.6706848451       -1.5556671473
 C          1.8479571879        2.6250165199       -2.7891862668
 C          3.1620205161        2.1959130295       -2.8819664790
 C          3.8579990505        1.8166961088       -1.7443132151
 C          3.2309557545        1.8600717864       -0.5099700656
 H          3.7331381378        1.5804777608        0.4022936626
 H          4.8816776527        1.4856689472       -1.8148986208
 H          3.6466426632        2.1574546336       -3.8447040727
 H          1.3077527485        2.9218265777       -3.6738334562
 H          0.1934550216        3.0010466234       -1.4643323733
 H         -0.2231946980        3.9782727603        1.6658565154
 H         -2.5926986810        4.0870859909        1.8530613751
 H         -4.7600996380        3.0140968467        1.3744795353
 H         -4.8576161460        0.8941239983        0.1391783045
 C         -2.6967994582       -0.5542821322       -0.8642321666
 H         -2.4157035867       -0.3714260253       -1.9122740656
 C         -4.0081659889       -1.3085814742       -0.8319024090
 C         -5.0650635490       -1.0302555531       -1.8577685356
 C         -4.2925372467       -2.3130457173       -1.9069428811
 H         -4.7928247528       -3.2302836856       -1.6350545074
 H         -3.5481006568       -2.4348753120       -2.6800957449
 H         -4.8507881714       -0.2821881754       -2.6058059099
 H         -6.1004728221       -1.0691042785       -1.5546989396
 H         -4.3211304968       -1.5530829332        0.1769297417
 O         -0.3732622879       -1.3531094401       -2.3039510070
