  62
        -98.94193931
 C         -1.1805693208       -1.5694315990        0.5146744896
 C         -2.1209353703       -1.1931962784       -0.4731090907
 C         -3.1436528695       -0.2172177275       -0.0602569411
 C         -3.1381403794        0.2577865628        1.1967544888
 C         -4.0973083087        1.2302837238        1.8360177383
 C         -4.4974625775        2.4685803239        1.0223059479
 C         -3.4127066868        3.0155268228        0.0823153880
 H         -2.4422204473        2.5668738220        0.3075355183
 H         -3.3102867060        4.0902133327        0.2477930978
 C         -3.7427569767        2.8017692227       -1.3970247820
 H         -3.1500339260        3.5036762421       -1.9888939620
 H         -4.7965203465        3.0406733336       -1.5601414423
 C         -3.4558721778        1.4022517323       -1.9383383816
 H         -2.3744837079        1.2396640814       -1.9736947113
 H         -3.8211283376        1.3573431824       -2.9674727217
 C         -4.0778543589        0.2434740631       -1.1411151014
 H         -4.1979825695       -0.6052845670       -1.8199004513
 H         -5.0535567588        0.5151631440       -0.7455039817
 H         -4.7749704770        3.2409432743        1.7418387477
 H         -5.3904826276        2.2481323845        0.4385627078
 H         -5.0007850192        0.6821139446        2.1196172883
 H         -3.6066348686        1.5453140736        2.7601747883
 O         -2.2192922199       -0.1420623077        2.1207139790
 C         -1.2034010906       -1.0245743586        1.7959864495
 O         -0.3945825610       -1.2422954491        2.7227465097
 H          0.4275019608        0.1129621495       -0.1986346605
 C          0.9634766004       -0.4767443111       -0.9249526702
 C          0.8211240893       -1.8564562410       -0.9238691599
 C          1.4977001489       -2.5890077118       -1.8917631096
 C          2.2786936696       -1.9441778227       -2.8357540596
 C          2.4182696408       -0.5675948928       -2.8292899599
 C          1.7483038112        0.1731567180       -1.8625496102
 N          1.8415875024        1.5715348579       -1.8128244205
 S          1.7832397627        2.3618900083       -0.3413009307
 O          0.4456262226        2.3446472096        0.1952272090
 O          2.3311704139        3.6715145678       -0.6245519809
 C          2.9130588717        1.4553463476        0.7001543797
 C          4.2588879319        1.5505221564        0.3987703000
 C          5.1701224311        0.8237667258        1.1458835404
 C          4.7227861202        0.0100139065        2.1764008105
 C          3.3712818401       -0.0703219123        2.4707190902
 C          2.4545605008        0.6586709083        1.7284283998
 H          1.3985856807        0.6039877392        1.9436069696
 H          3.0104786594       -0.6998068718        3.2687834303
 H          5.4298169996       -0.5625441940        2.7556490408
 H          6.2226270912        0.8900360049        0.9224545606
 H          4.5673735926        2.2028514260       -0.4019562301
 H          2.5106311528        1.9846298572       -2.4448421105
 H          3.0262522314       -0.0693612335       -3.5684774899
 H          2.7915804193       -2.5240046433       -3.5879270893
 H          1.4057650980       -3.6626923917       -1.9121095493
 C         -0.0304989015       -2.4894713600        0.1530328201
 H          0.5876677583       -2.5745502203        1.0600819502
 C         -0.5375626826       -3.8671100997       -0.2219263297
 C          0.2721825264       -5.0870336003        0.0969824308
 C         -0.9780708636       -4.7948998891        0.8691490905
 H         -1.8481949040       -5.4117461784        0.7021870204
 H         -0.8827522435       -4.4421083989        1.8861133804
 H          1.2179467864       -4.9450307410        0.5978874210
 H          0.2590561358       -5.9107712605       -0.6007855990
 H         -1.1177335024       -3.8592926094       -1.1371401598
 O         -2.1103209204       -1.6471495287       -1.6469233206
