  62
        -98.93677934
 C         -2.5702403035       -0.0408882929       -0.0679314236
 C         -2.3372697463       -1.1211946390       -0.9465304559
 C         -1.8330901802       -2.3740465237       -0.3541243315
 C         -1.6023859555       -2.4139675976        0.9714032456
 C         -1.0620002551       -3.5539684440        1.7945023076
 C          0.4545889829       -3.7325451010        1.6350927355
 C          0.9537473090       -3.7043514398        0.1935663390
 H          0.7146115188       -2.7304676061       -0.2381294547
 H          2.0444532234       -3.7792102170        0.2259356908
 C          0.4348990864       -4.8262696596       -0.7035441721
 H          0.9612191050       -4.7446564334       -1.6579868658
 H          0.7008396986       -5.7879314644       -0.2589992893
 C         -1.0683315951       -4.8236727032       -0.9938320216
 H         -1.6331798059       -5.2405823539       -0.1643457126
 H         -1.2347260827       -5.4876060428       -1.8471821238
 C         -1.6387116290       -3.4636336451       -1.3814209343
 H         -2.6248151781       -3.6139302911       -1.8374238648
 H         -1.0197760595       -3.0267351629       -2.1736868508
 H          0.7422082916       -4.6731492258        2.1093238347
 H          0.9486606566       -2.9144105543        2.1662778292
 H         -1.2742127403       -3.3109854342        2.8383234639
 H         -1.5864577872       -4.4741525501        1.5539929788
 O         -1.8269968865       -1.3393141775        1.7809244004
 C         -2.2744405075       -0.1287541830        1.2919780802
 O         -2.3862104396        0.7671328659        2.1520943013
 O         -2.5322127678       -1.0446467888       -2.1923630842
 C         -3.0016291415        1.3002141897       -0.6407118705
 C         -1.8577610234        2.2607861302       -0.4267245904
 C         -1.9607106298        3.4798763380        0.2285897062
 C         -0.8275031243        4.2310138879        0.4963377892
 C          0.4284460340        3.7799006744        0.1312819549
 C          0.5335367630        2.5799772431       -0.5552886468
 C         -0.6003474633        1.8455994964       -0.8479400690
 H         -0.5022704379        0.8979069108       -1.3636987515
 N          1.8264145325        2.0534994831       -0.8650409610
 S          2.2359466481        0.9308641451        0.3436418598
 O          1.4489382301       -0.2747834751        0.1977460918
 O          2.1596317263        1.6080083252        1.6133967090
 C          3.9412833487        0.5943297050       -0.0567487873
 C          4.3001446336       -0.6361056316       -0.5706701001
 C          5.6280353732       -0.8639073363       -0.8981548252
 C          6.5665220319        0.1391706522       -0.7110808830
 C          6.1897384553        1.3707371266       -0.1955196710
 C          4.8648407777        1.6038204806        0.1355578504
 H          4.5245530835        2.5401491148        0.5450713091
 H          6.9226921577        2.1479615226       -0.0513620611
 H          7.5984856881       -0.0404573553       -0.9679846442
 H          5.9230876721       -1.8208827250       -1.2975412800
 H          3.5351792618       -1.3861823362       -0.6954995995
 H          1.7993065496        1.5356365031       -1.7361624157
 H          1.3209916994        4.3290085941        0.3818147096
 H         -0.9239471623        5.1686989024        1.0223028896
 H         -2.9259289405        3.8299194612        0.5568197520
 H         -3.1248764828        1.1340352140       -1.7210466350
 C         -4.3167447104        1.7645818590       -0.0574491021
 C         -5.1749901001        2.7274180286       -0.8211980623
 C         -5.5952909561        1.2960504078       -0.6827127788
 H         -6.4274714670        1.0607492966       -0.0366738546
 H         -5.5181194966        0.6527378336       -1.5470405900
 H         -5.7231157701        3.4769420051       -0.2710217018
 H         -4.8167467040        3.0593243843       -1.7838071425
 H         -4.2872535476        1.8459354411        1.0230275251
