  62
        -98.93998882
 C          2.0979694396        1.4441609943        0.5293462635
 C          2.0629997182        0.2427152041        1.2838063632
 C          3.1167155590       -0.7352638378        1.0004363938
 C          4.0568728377       -0.4499702814        0.0816498700
 C          5.2113324214       -1.3330318677       -0.3074670715
 C          4.8573423289       -2.3940233321       -1.3586575715
 C          3.9883907487       -3.5465032960       -0.8533143036
 H          4.0023314816       -4.3184868971       -1.6252628928
 H          4.4401000847       -3.9745010856        0.0421477320
 C          2.5300594022       -3.1620594119       -0.5654662819
 H          2.2997953853       -2.2116008327       -1.0522390106
 H          1.8656379204       -3.9113488317       -1.0006827752
 C          2.1832828558       -3.0523563820        0.9195082664
 H          2.2693490247       -4.0340268157        1.3905460769
 H          1.1453094255       -2.7213567484        1.0032295877
 C          3.0557332640       -2.0597649491        1.6986682124
 H          2.6013758386       -1.8981555608        2.6792138773
 H          4.0578617327       -2.4641551657        1.8395308265
 H          4.3584864384       -1.9018296542       -2.1967419956
 H          5.7968314825       -2.8103775877       -1.7297206468
 H          5.9780739878       -0.6771264363       -0.7254997476
 H          5.6168178881       -1.8189062331        0.5805360168
 O          4.0697907520        0.7199923526       -0.6072474572
 C          3.0745408776        1.6789195762       -0.4391597406
 O          3.1981551703        2.6597702845       -1.1943890930
 O          1.1888213466        0.0065294944        2.1603345373
 C          0.9735035332        2.4285073460        0.7987582326
 C         -0.2283759382        2.0333615027       -0.0209370886
 C         -0.1345842699        1.8800617062       -1.4010943986
 C         -1.2361866012        1.4850993285       -2.1375736532
 C         -2.4449223593        1.2221983451       -1.5156911523
 C         -2.5428652177        1.3523357030       -0.1369835618
 C         -1.4378873046        1.7621904702        0.5996705992
 H         -1.5152459768        1.8525717872        1.6743548548
 N         -3.7605393084        1.0766562613        0.5067964791
 S         -4.6073777318       -0.3041993635        0.0861997566
 O         -5.2378111023       -0.1088188802       -1.1950228444
 O         -5.4940115614       -0.5490785157        1.2005796780
 C         -3.3835931397       -1.5963332217       -0.0265511483
 C         -2.8191211332       -2.0591477240        1.1457122426
 C         -1.8505580108       -3.0466975636        1.0798375491
 C         -1.4597853025       -3.5473941203       -0.1527987280
 C         -2.0332484079       -3.0702102415       -1.3207827132
 C         -3.0056125644       -2.0846857481       -1.2605043223
 H         -3.4827621328       -1.6953583227       -2.1447914044
 H         -1.7258505375       -3.4618777217       -2.2770853981
 H         -0.7044750329       -4.3160007911       -0.2005311435
 H         -1.4010078505       -3.4177745034        1.9870542779
 H         -3.1527621225       -1.6549203604        2.0879031768
 H         -3.7235076093        1.1808611393        1.5102794080
 H         -3.3126805375        0.9195728413       -2.0783857708
 H         -1.1541942354        1.3788643344       -3.2087616514
 H          0.8116388800        2.0739211678       -1.8848913831
 H          0.7126227319        2.2724614200        1.8578782429
 C          1.3665682369        3.8888841144        0.6428229420
 C          0.8302776382        4.7850499038       -0.4288706673
 C          0.3760254689        4.9622454686        0.9869351315
 H          0.7153515871        5.8251769492        1.5395006331
 H         -0.6291115945        4.6494171222        1.2284313837
 H          1.5062441655        5.5105087521       -0.8549634443
 H          0.1296876973        4.3759502606       -1.1395060498
 H          2.3949199662        4.0654322071        0.9395334357
