  62
        -98.93815550
 C          2.5386695672        0.2088853853        0.0195462268
 C          2.3475961129       -0.8126820503        0.9751392354
 C          2.0938914651       -2.1727193368        0.4636111732
 C          2.0769611253       -2.3690425637       -0.8678726584
 C          1.8298406418       -3.6483933225       -1.6236428052
 C          0.3449621495       -4.0377597164       -1.6661390835
 C         -0.3862903391       -3.9253503639       -0.3313699849
 H         -0.3472609179       -2.8895541761        0.0132997486
 H         -1.4403541457       -4.1534010156       -0.5128525611
 C          0.1100649034       -4.8644251321        0.7660260379
 H         -0.5660348641       -4.7480087927        1.6171400805
 H          0.0293957233       -5.8960089637        0.4153624301
 C          1.5386188181       -4.6313683386        1.2641790888
 H          2.2706087014       -5.0459010173        0.5761582209
 H          1.6480269611       -5.1815781282        2.2034061429
 C          1.8746796400       -3.1756338131        1.5701997622
 H          2.7864370715       -3.1451479826        2.1793232784
 H          1.0889999930       -2.7513744812        2.2075742022
 H          0.2677537726       -5.0594888804       -2.0431432520
 H         -0.1589638178       -3.3733454501       -2.3721824887
 H          2.1726658088       -3.4756042745       -2.6463706082
 H          2.4279787222       -4.4519587975       -1.2041778806
 O          2.2763188070       -1.3520484647       -1.7551018083
 C          2.4683665614       -0.0457244449       -1.3487430509
 O          2.5764953472        0.7749955917       -2.2809068296
 O          2.3828474422       -0.6011869855        2.2204168513
 C          2.7086655839        1.6400942016        0.4910395305
 C          1.5298511322        2.4726118469        0.0443487917
 C          1.6366231132        3.7985889410       -0.3546094631
 C          0.5077567789        4.5065086662       -0.7322053939
 C         -0.7410649704        3.9141516803       -0.7249803886
 C         -0.8578175087        2.5838464675       -0.3325461658
 C          0.2705379810        1.8871110075        0.0629304100
 H          0.1680573458        0.8613573233        0.3847460957
 N         -2.1015087026        1.9329705398       -0.3712205496
 S         -2.3371084361        0.4757019970        0.4348970769
 O         -2.0527160797        0.6248457806        1.8464265838
 O         -1.6266159293       -0.5665745013       -0.2608381318
 C         -4.0923374696        0.2786865226        0.1923051189
 C         -4.5421909575       -0.3324572635       -0.9624138519
 C         -5.9072991255       -0.4585010248       -1.1660961911
 C         -6.7951355599        0.0273188867       -0.2176927490
 C         -6.3291770649        0.6360550215        0.9380099639
 C         -4.9651914388        0.7649865485        1.1475030104
 H         -4.5567931824        1.2189879879        2.0361045869
 H         -7.0214639999        1.0091165639        1.6754324263
 H         -7.8568805736       -0.0722943010       -0.3787704266
 H         -6.2725144279       -0.9347963260       -2.0616202495
 H         -3.8132273657       -0.7011318197       -1.6654991985
 H         -2.8933012561        2.5554046547       -0.2972936129
 H         -1.6166574104        4.4666266480       -1.0287654974
 H          0.6036670121        5.5370270600       -1.0389821232
 H          2.6024936780        4.2765393578       -0.3719264519
 H          2.6866549787        1.5891200307        1.5912405725
 C          4.0446442457        2.2035376566        0.0542901813
 C          4.7598736993        3.2080307318        0.9062972365
 C          5.2766588141        1.8052125833        0.8087069452
 H          6.1848937809        1.6238145600        0.2541387905
 H          5.1448548348        1.1498292456        1.6575767119
 H          5.3188318190        3.9923678507        0.4186068398
 H          4.2870322530        3.5082401928        1.8293354764
 H          4.1235831648        2.2921533325       -1.0232320314
