  62
        -98.93814229
 C          2.1902431264        0.8293923043        0.0049858052
 C          2.8615390886        0.1156629673        1.0229648514
 C          3.6876299434       -1.0247063349        0.5900399549
 C          3.7306264648       -1.3391162611       -0.7166568690
 C          4.5523869554       -2.4145966387       -1.3716293633
 C          5.8935232160       -1.8450121618       -1.8649901885
 C          7.0171080196       -1.8505153907       -0.8291070856
 H          7.3439187385       -2.8786101264       -0.6595507021
 H          7.8597323868       -1.3062128389       -1.2615522079
 C          6.6675126869       -1.2203063543        0.5216209345
 H          7.6022213270       -0.9500454362        1.0167765130
 H          6.1072645101       -0.2968715072        0.3638081586
 C          5.8746997206       -2.1620979358        1.4400586290
 H          5.9149399948       -3.1727838353        1.0341622474
 H          6.3563948067       -2.2027318632        2.4192543838
 C          4.4117170077       -1.7620854872        1.6836275655
 H          3.8355417342       -2.6570343285        1.9429338877
 H          4.3562978128       -1.0955989743        2.5503023117
 H          6.2257242618       -2.4279854119       -2.7263093783
 H          5.7160618383       -0.8234256490       -2.2107023219
 H          4.7044039763       -3.2508968354       -0.6957781742
 H          3.9816973218       -2.7590043109       -2.2365195297
 O          3.0357035370       -0.6479188896       -1.6613712430
 C          2.2538482095        0.4471968469       -1.3349763834
 O          1.6786896323        0.9771766574       -2.3029514628
 O          2.7766672454        0.4184299713        2.2456073367
 C          1.3428586411        2.0306667688        0.3804071498
 C         -0.1012071766        1.7937174126        0.0103444971
 C         -0.8898727159        2.7364834806       -0.6351097344
 C         -2.2137661190        2.4589655571       -0.9303529929
 C         -2.7798036018        1.2454137944       -0.5877985423
 C         -2.0044760148        0.2996839428        0.0710521843
 C         -0.6804763883        0.5819071261        0.3679525920
 H         -0.0783281375       -0.1557930379        0.8854029918
 N         -2.5704124525       -0.9404635184        0.4196744820
 S         -3.9973298201       -0.9265764195        1.3078466682
 O         -4.0987372976        0.2608850480        2.1244156268
 O         -4.0193103670       -2.1923471212        2.0082719755
 C         -5.2754300943       -0.9274326773        0.0686198158
 C         -5.2835605548       -1.9527445546       -0.8568303551
 C         -6.2761354361       -1.9731643052       -1.8234768874
 C         -7.2397152812       -0.9755716077       -1.8462924839
 C         -7.2199100232        0.0446959233       -0.9076724829
 C         -6.2289430964        0.0717170226        0.0614330134
 H         -6.1699086026        0.8476344009        0.8079021421
 H         -7.9698952450        0.8189257617       -0.9272200935
 H         -8.0105775639       -0.9939034646       -2.6004204152
 H         -6.2946479525       -2.7649438837       -2.5550653701
 H         -4.5189815410       -2.7097600991       -0.8019771570
 H         -1.9090977796       -1.5832514691        0.8312318516
 H         -3.8080506013        1.0239386460       -0.8223786595
 H         -2.8124012695        3.1988959495       -1.4391502540
 H         -0.4676267880        3.6884048712       -0.9115360939
 H          1.4013389885        2.0982198432        1.4776022255
 C          1.9250544865        3.2949364905       -0.2160670636
 C          1.7349618930        4.6127670495        0.4717854864
 C          3.0803941401        3.9534482530        0.4745314337
 H          3.8676101910        4.3797696061       -0.1289471677
 H          3.4297545369        3.5047186752        1.3932437061
 H          1.6007430455        5.4961219397       -0.1340454381
 H          1.1723268671        4.6192759891        1.3931695538
 H          1.9344984909        3.2767338032       -1.3000244142
