  62
        -98.94491424
 C          2.1585013120        0.8854995854       -0.0668574134
 C          2.9728185960        0.4939015905        1.0286449333
 C          3.7074146107       -0.7678453118        0.8803783411
 C          3.5492213103       -1.4890363676       -0.2441242614
 C          4.2593545544       -2.7759150262       -0.5467335029
 C          5.5756467229       -2.5240126862       -1.2954026540
 C          6.4584482147       -1.4564757862       -0.6489234410
 H          5.9546330191       -0.4896161948       -0.7167580110
 H          7.3713779695       -1.3859467161       -1.2441034341
 C          6.8227041993       -1.7359214664        0.8158782066
 H          7.8878411118       -1.5398202475        0.9550943493
 H          6.6545391706       -2.7887793741        1.0449936769
 C          6.0740148964       -0.8708510115        1.8314652122
 H          6.1606212547        0.1815736680        1.5502633166
 H          6.5592428580       -0.9911880588        2.8035936786
 C          4.5873982126       -1.1984538817        2.0201616514
 H          4.2331435968       -0.6469916608        2.8958767068
 H          4.4672784278       -2.2660438499        2.2157065900
 H          5.3388653106       -2.2035648612       -2.3126505139
 H          6.1237195497       -3.4660489383       -1.3550065911
 H          3.6063775796       -3.3889562739       -1.1705870878
 H          4.4537732698       -3.3036308136        0.3850882565
 O          2.7469442468       -1.0954584082       -1.2640338205
 C          2.0347113256        0.0939485472       -1.2086721313
 O          1.3561075415        0.3105750641       -2.2333470111
 O          3.0806463167        1.1747322057        2.0828836558
 C          1.3744217881        2.1801963699        0.0892484990
 C         -0.0541349152        1.8356925871        0.4350557482
 C         -0.4913089705        1.8926174235        1.7540935917
 C         -1.7762417634        1.5043446525        2.0890306743
 C         -2.6467225596        1.0396816395        1.1190306624
 C         -2.2142694926        0.9662828661       -0.1981655348
 C         -0.9349982977        1.3807359825       -0.5360214033
 H         -0.6018743635        1.2961197255       -1.5592758760
 N         -3.0831335830        0.4539414285       -1.1855204987
 S         -3.5833759697       -1.1358609549       -0.9426317267
 O         -2.6096477633       -1.8892739987       -0.1844568389
 O         -3.9115388959       -1.6439309844       -2.2571151738
 C         -5.0854933502       -0.9605165850       -0.0015337677
 C         -5.1990137478       -1.5660166937        1.2345063578
 C         -6.3793681760       -1.4187205294        1.9466277030
 C         -7.4191387901       -0.6730543994        1.4125766725
 C         -7.2898804039       -0.0731389759        0.1685855240
 C         -6.1132288905       -0.2173628343       -0.5489453018
 H         -5.9716035421        0.2279598009       -1.5194304872
 H         -8.1006540161        0.5058278286       -0.2432945574
 H         -8.3356538652       -0.5590060034        1.9695497234
 H         -6.4812913901       -1.8845774990        2.9136147554
 H         -4.3605849659       -2.1301133172        1.6110969748
 H         -2.6988955574        0.5393698841       -2.1171006174
 H         -3.6453616552        0.7239682507        1.3736613799
 H         -2.1015149639        1.5569453925        3.1168146374
 H          0.1957634142        2.2232342236        2.5197099044
 H          1.8189420632        2.6806405892        0.9597440014
 C          1.4866225344        3.1040751954       -1.1055281549
 C          1.1212289322        4.5480465463       -0.9405322925
 C          2.5557017452        4.1537165192       -1.1194377349
 H          3.0421246418        4.3795031500       -2.0565752321
 H          3.2115915279        4.2109342701       -0.2630229345
 H          0.6197036722        5.0485511314       -1.7544036352
 H          0.8037562861        4.8721398332        0.0389360132
 H          1.2525992101        2.6280862952       -2.0487640451
