  62
        -98.94641267
 C         -1.1893938700       -1.2490096762        0.0469124985
 C         -1.5710692560       -0.2538660286        0.9807420098
 C         -2.4384223173        0.8106208638        0.4676430539
 C         -2.7544309027        0.8379300571       -0.8396456516
 C         -3.6415582998        1.8478564964       -1.5160308130
 C         -5.1383663828        1.5263183796       -1.4025488520
 C         -5.7489769851        1.7639986415       -0.0205887105
 H         -5.5031003195        2.7716326480        0.3160451541
 H         -6.8334548718        1.7162713119       -0.1377706508
 C         -5.3244759113        0.7447748576        1.0460874602
 H         -4.9080931317       -0.1403526987        0.5596488750
 H         -6.2037758127        0.4171852623        1.6054334505
 C         -4.3125980741        1.2720895697        2.0639658311
 H         -4.0623699125        0.4577248109        2.7486924408
 H         -4.7661426732        2.0752294481        2.6490048187
 C         -3.0069817937        1.7919899982        1.4471178744
 H         -3.1771074940        2.7552878917        0.9675959401
 H         -2.2760600298        1.9230022510        2.2484885242
 H         -5.2977828668        0.4868777764       -1.6983245415
 H         -5.6637201864        2.1597757905       -2.1210173857
 H         -3.3682551231        1.8475348440       -2.5733107354
 H         -3.4582580104        2.8414327630       -1.1062432313
 O         -2.2707923765       -0.0699919090       -1.7260959187
 C         -1.4918870320       -1.1416220582       -1.3109801562
 O         -1.1429651064       -1.8985283125       -2.2354314609
 O         -1.2111882506       -0.2630426954        2.1887793472
 C         -0.3711872255       -2.4262954813        0.5541151765
 C          1.0627270525       -2.2253755487        0.1343041914
 C          1.6525347018       -2.8877607969       -0.9339391464
 C          2.9579048294       -2.6028676062       -1.2991305373
 C          3.7007259284       -1.6624886101       -0.6077796473
 C          3.1171411700       -0.9954819528        0.4616549889
 C          1.8100657842       -1.2774598938        0.8242849688
 H          1.3498414373       -0.7471307334        1.6483204995
 N          3.8643542756       -0.0163805622        1.1594204420
 S          4.1368879252        1.3993068181        0.3081979763
 O          4.9090587675        1.0898971749       -0.8669762944
 O          4.7363708558        2.3173249816        1.2488488070
 C          2.5146006173        1.9773579168       -0.1574212583
 C          1.8963757241        2.9342932778        0.6220319660
 C          0.6201495474        3.3523850766        0.2832677990
 C         -0.0162739901        2.7991333993       -0.8165981312
 C          0.6108043645        1.8265157656       -1.5795045299
 C          1.8897005077        1.4087302616       -1.2495342701
 H          2.4074273845        0.6600924149       -1.8273874131
 H          0.1061355773        1.3839541047       -2.4243883902
 H         -1.0074049283        3.1265676232       -1.0850511825
 H          0.1244934258        4.1040300139        0.8761767772
 H          2.4305626767        3.3414975643        1.4655963520
 H          3.4563050372        0.2199159517        2.0540530548
 H          4.7114675382       -1.4184158732       -0.8914138102
 H          3.4030122262       -3.1213808178       -2.1348484718
 H          1.0829635829       -3.6119354402       -1.4924100637
 H         -0.4094445319       -2.3508432240        1.6498518294
 C         -0.9551527272       -3.7593555447        0.1403419248
 C         -0.5142155044       -5.0018825608        0.8527076414
 C         -1.8958781243       -4.4641029544        1.0694172262
 H         -2.7315815042       -5.0011051037        0.6463312796
 H         -2.1169763105       -3.9895654546        2.0144735099
 H         -0.3996233684       -5.9109479615        0.2826051908
 H          0.2046707001       -4.8899731482        1.6503287384
 H         -1.1642020823       -3.8285589373       -0.9196425217
