  62
        -98.94289517
 C         -2.4844960026       -0.8770568714        0.4707810337
 C         -2.5279977200        0.3083531287       -0.3016556361
 C         -3.6578615859        1.2081169031       -0.0264801530
 C         -4.5473163833        0.8787783706        0.9278705202
 C         -5.7708993251        1.6766926382        1.2720390593
 C         -6.9838895237        1.2158937694        0.4516705397
 C         -6.7087421535        1.1030868907       -1.0478003292
 H         -5.9855881705        0.3021743675       -1.2181322542
 H         -7.6419757507        0.8003226961       -1.5276695856
 C         -6.1951316045        2.3953124841       -1.6980285378
 H         -6.7317040877        2.5522839977       -2.6361669471
 H         -6.4145411419        3.2471147426       -1.0533320643
 C         -4.7027690833        2.3860263870       -2.0345018890
 H         -4.4611985350        1.4844080894       -2.6030634260
 H         -4.4942862980        3.2444081632       -2.6786467438
 C         -3.7480258498        2.4705598350       -0.8368377900
 H         -4.0252584873        3.3162440148       -0.2043566361
 H         -2.7409061313        2.6472769504       -1.2258044502
 H         -7.2964385556        0.2348770421        0.8168755900
 H         -7.8021229857        1.9180088752        0.6216736468
 H         -5.9862952526        1.5358902930        2.3325474567
 H         -5.5739907905        2.7310451762        1.0881479057
 O         -4.4565869543       -0.2572002842        1.6663028743
 C         -3.4308911258       -1.1631007493        1.4547189275
 O         -3.4664257516       -2.1653579019        2.1973178515
 O         -1.6727446815        0.6017245013       -1.1770870013
 C         -1.3650865296       -1.8812431084        0.2575231333
 C         -0.0362350389       -1.2201935351        0.5330930202
 C          0.1747450517       -0.6529873391        1.7876791833
 C          1.3705257599       -0.0323892386        2.0909028040
 C          2.3830667307        0.0410930729        1.1494202030
 C          2.1873626006       -0.5277560338       -0.1004994512
 C          0.9858672177       -1.1604702662       -0.3993521294
 H          0.8501921853       -1.5950458751       -1.3773101150
 N          3.2023147410       -0.4456758521       -1.0659074626
 S          4.7822391748       -0.7987281946       -0.6354944656
 O          5.4321953875       -1.1757928804       -1.8717132389
 O          4.8356538605       -1.7642656446        0.4376887633
 C          5.4417199257        0.7616935306       -0.0872133654
 C          5.3521160628        1.8442702265       -0.9400641054
 C          5.8700557213        3.0626841083       -0.5311142902
 C          6.4683204558        3.1769050261        0.7150226096
 C          6.5539264784        2.0796792749        1.5581507783
 C          6.0368643710        0.8582049301        1.1553186129
 H          6.0761365117       -0.0202672507        1.7797593343
 H          7.0196501384        2.1702913764        2.5263529987
 H          6.8701198006        4.1267618587        1.0307972601
 H          5.8050041774        3.9183632123       -1.1838409664
 H          4.8821753521        1.7149352402       -1.9007558720
 H          2.9603121495       -0.8537059808       -1.9567722729
 H          3.3162434380        0.5293008022        1.3776164151
 H          1.5168988298        0.4031789150        3.0677760381
 H         -0.6185427513       -0.7062449892        2.5214835059
 H         -1.5137677589       -2.6663469081        1.0128763026
 C         -1.4720717769       -2.5043076495       -1.1182519501
 C         -0.8696497904       -3.8511601992       -1.3804233901
 C         -2.3585873669       -3.6967574001       -1.3072492157
 H         -2.9309220526       -3.7748336790       -2.2194771679
 H         -2.8721773275       -4.0770728983       -0.4361524067
 H         -0.4216075794       -4.0397534184       -2.3446742030
 H         -0.3689341428       -4.3425871910       -0.5597030395
 H         -1.4503716392       -1.7689259642       -1.9143980024
