  62
        -98.93972071
 C          2.5023737556       -0.0152080790        0.0135994125
 C          2.4760720685       -1.1472813400        0.8561709243
 C          1.9425231294       -2.3923492119        0.2776333212
 C          1.4858669476       -2.3857837964       -0.9886207693
 C          0.8783883662       -3.4818342543       -1.8398273323
 C          0.4917529723       -4.8239596307       -1.2255612811
 C         -0.7139615680       -4.7696598493       -0.2871831429
 H         -0.8236482078       -5.7487732966        0.1847878440
 H         -1.6086929173       -4.5848128825       -0.8871281052
 C         -0.6667961310       -3.6974775211        0.7989415328
 H         -1.5973698851       -3.7642734761        1.3701395363
 H         -0.6478188322       -2.7038314087        0.3450124297
 C          0.4899187174       -3.8211316075        1.7882647316
 H          0.4766903709       -4.8113828894        2.2491528440
 H          0.3274926665       -3.0805779443        2.5761229158
 C          1.8899719070       -3.5735354027        1.2046632882
 H          2.2759753752       -4.4636548994        0.7137202893
 H          2.5630928236       -3.3375609726        2.0345655830
 H          1.3484055911       -5.2690233331       -0.7279092606
 H          0.2309468140       -5.4837320184       -2.0578155729
 H          1.5964413334       -3.6610994872       -2.6480197597
 H         -0.0048997468       -3.0323871662       -2.3065680093
 O          1.5595477686       -1.2716439083       -1.7763800268
 C          2.0371264181       -0.0659209076       -1.2992438327
 O          2.0118349225        0.8650034400       -2.1293060432
 O          2.8799847901       -1.1209210100        2.0517826922
 C          2.9414621404        1.3239605366        0.5759486284
 C          1.8165490871        2.3203093945        0.4249590777
 C          2.0144066971        3.6551435309        0.0962569199
 C          0.9314070056        4.4992939356       -0.0811403752
 C         -0.3629503163        4.0272097747        0.0354075280
 C         -0.5707974587        2.6968731584        0.3804407898
 C          0.5154974748        1.8713037317        0.6114009396
 H          0.3417834729        0.8421854922        0.8865908994
 N         -1.8735828212        2.1632956389        0.5058309989
 S         -2.2120898306        0.7802684161       -0.4143736020
 O         -1.4276216802       -0.3290059810        0.0591224166
 O         -2.1102581714        1.0952554429       -1.8242517031
 C         -3.9233914516        0.5383845466        0.0259276993
 C         -4.9159657553        1.0475723133       -0.7894707853
 C         -6.2407257150        0.8852730575       -0.4151622862
 C         -6.5482012626        0.2226263542        0.7635022070
 C         -5.5408793604       -0.2844599722        1.5710084216
 C         -4.2145548418       -0.1256875166        1.2018250901
 H         -3.3977575683       -0.5078382453        1.7920439740
 H         -5.7831092669       -0.8021313141        2.4851258302
 H         -7.5795432434        0.0976588792        1.0532884766
 H         -7.0256410873        1.2753686182       -1.0428603343
 H         -4.6295072484        1.5454961819       -1.7019982268
 H         -2.5762566751        2.8595978823        0.2861966031
 H         -1.2057176614        4.6782423045       -0.1439846708
 H          1.0981512142        5.5339154996       -0.3405931028
 H          3.0157459999        4.0316470067       -0.0365102566
 H          3.1205046680        1.1517859904        1.6481645314
 C          4.2334994864        1.7815532022       -0.0686332194
 C          5.2215787989        2.6020578653        0.7043989033
 C          5.5238390191        1.1697832908        0.3855497670
 H          6.2787504828        0.9508408183       -0.3544631198
 H          5.4702982072        0.4434445286        1.1832898129
 H          5.7745459717        3.3684394323        0.1824207805
 H          4.9752284674        2.8504289753        1.7256172508
 H          4.1169762570        1.9784144478       -1.1288313646
