  62
        -98.94299002
 C         -1.8191757771       -1.3373339066       -0.0571118628
 C         -3.1488830057       -1.2032695871        0.4242120029
 C         -3.9440839245       -0.1137468430       -0.1513959633
 C         -3.3898391361        0.7050297141       -1.0630773089
 C         -4.0697212451        1.8586160683       -1.7492904545
 C         -4.0746010303        3.1582695666       -0.9325827409
 C         -5.0237708057        3.1709757977        0.2663346033
 H         -5.0928644830        4.2052743599        0.6091454164
 H         -6.0206417797        2.8690601577       -0.0566500142
 C         -4.5719986212        2.2916650235        1.4408399955
 H         -3.5120071576        2.0515370291        1.3302353279
 H         -4.6777340978        2.8485735679        2.3745512715
 C         -5.3594022460        0.9909686554        1.5985811592
 H         -6.3989653397        1.2184568221        1.8451000066
 H         -4.9312365576        0.4293481205        2.4327717807
 C         -5.3388889246        0.0865068249        0.3595985497
 H         -5.7335467762       -0.8921985484        0.6440277774
 H         -5.9731349557        0.5045820766       -0.4221105920
 H         -3.0571169459        3.3619801057       -0.5917398990
 H         -4.3672117837        3.9652512013       -1.6083015267
 H         -3.5209951344        2.0365303608       -2.6767644026
 H         -5.0942303710        1.5823274948       -2.0008526941
 O         -2.1104836885        0.5549871411       -1.4906129171
 C         -1.2906099166       -0.4600818065       -1.0062446019
 O         -0.1532435947       -0.4534212218       -1.5107609055
 O         -3.6489757313       -1.9634824043        1.2947647174
 C         -0.9717056741       -2.4392398214        0.5575986091
 C          0.3400211822       -1.8621696813        1.0209140498
 C          0.4008362462       -1.1620832410        2.2221295566
 C          1.5785875380       -0.5655694356        2.6330997648
 C          2.7127481946       -0.6321775381        1.8424531239
 C          2.6536806667       -1.3111348189        0.6325393171
 C          1.4814334172       -1.9432819834        0.2402169432
 H          1.4468754626       -2.4616541942       -0.7050632643
 N          3.7796752201       -1.3438150800       -0.2054760764
 S          4.7284645045        0.0249536929       -0.3255365057
 O          5.3222564254       -0.0411867527       -1.6436521406
 O          5.6664003569        0.0515389008        0.7719009422
 C          3.6540821984        1.4488542808       -0.2063547128
 C          4.0947912605        2.5338118092        0.5265565534
 C          3.2979373253        3.6640655113        0.6049973260
 C          2.0737624134        3.6905222611       -0.0454915149
 C          1.6458612981        2.5931954650       -0.7754515752
 C          2.4410358754        1.4612212651       -0.8647688210
 H          2.0934788467        0.6026367487       -1.4168750027
 H          0.6899836791        2.5952691948       -1.2757444457
 H          1.4492308922        4.5678525355        0.0179121820
 H          3.6309375181        4.5171105340        1.1740779818
 H          5.0477385607        2.4658642416        1.0261998320
 H          3.5957136728       -1.7389857055       -1.1160810404
 H          3.6373659541       -0.1657696454        2.1428402724
 H          1.6139612357       -0.0340737821        3.5717993447
 H         -0.4911930049       -1.0841295993        2.8280992110
 H         -1.5419068674       -2.7565758234        1.4453030589
 C         -0.8009399650       -3.6769324962       -0.3106728618
 C         -1.9567935824       -4.2129837012       -1.0999994125
 C         -0.7693079361       -3.6363961945       -1.8079265136
 H         -0.1015176079       -4.3138952298       -2.3206353599
 H         -0.8735540217       -2.6792556358       -2.2940325627
 H         -2.1106519034       -5.2809685812       -1.1329227610
 H         -2.8719174057       -3.6389677436       -1.0895845186
 H         -0.1591270689       -4.4124127556        0.1656068677
