  62
        -98.94049926
 C         -1.1933667754       -1.4062209224        0.6534266834
 C         -1.9139420523       -1.0811318974       -0.5245488304
 C         -3.0021994696       -0.1001940311       -0.3598945032
 C         -3.1685716753        0.5149683595        0.8234380069
 C         -4.2381832844        1.5234972993        1.1283740440
 C         -3.7883310180        2.9587525302        0.8257258576
 C         -3.1601220077        3.1301562500       -0.5564185117
 H         -2.9115971373        4.1873770737       -0.6695520957
 H         -2.2268847284        2.5652226741       -0.5950400022
 C         -4.0543128044        2.6912515999       -1.7232854199
 H         -5.0921319198        2.6232906041       -1.3949450107
 H         -4.0113878534        3.4523853652       -2.5049441434
 C         -3.6369099973        1.3673093897       -2.3647907641
 H         -2.5704735962        1.3925290410       -2.6015298543
 H         -4.1794171856        1.2593220468       -3.3077689991
 C         -3.9175685962        0.1091595042       -1.5344265208
 H         -4.9598537993        0.1124714808       -1.2065448320
 H         -3.7666032531       -0.7556123317       -2.1873642960
 H         -4.6550107180        3.6157830120        0.9194995666
 H         -3.0555678701        3.2597079000        1.5780842030
 H         -5.1240286225        1.2820115444        0.5430090257
 H         -4.4856315418        1.4457710773        2.1887822581
 O         -2.3492283026        0.2951601296        1.8851044553
 C         -1.3721029568       -0.6857652318        1.8382178341
 O         -0.7316110459       -0.8113127427        2.9023838714
 H          1.9878004361       -0.9476229056        0.8943786631
 C          1.9412428743       -1.4160937680       -0.0763703281
 C          0.9053333640       -2.2974127210       -0.3567016073
 C          0.8793358147       -2.9322928721       -1.5914272030
 C          1.8625649313       -2.6654883155       -2.5276417308
 C          2.8863714017       -1.7769632634       -2.2514878034
 C          2.9317599443       -1.1517675033       -1.0093452504
 N          3.9867541631       -0.2905765636       -0.6898224680
 S          3.9650495640        0.8192109938        0.5464925982
 O          5.1759523037        1.5834090049        0.3392799550
 O          3.8451220949        0.1538613997        1.8190636698
 C          2.5613302663        1.8802968827        0.2559304668
 C          1.4437123827        1.8092212104        1.0617700302
 C          0.3865461483        2.6717155540        0.8177832965
 C          0.4650722278        3.5885225861       -0.2185099067
 C          1.5936544967        3.6457188178       -1.0222153804
 C          2.6514252411        2.7844889366       -0.7850922861
 H          3.5544888441        2.8139032924       -1.3725441502
 H          1.6509443197        4.3609459488       -1.8267397859
 H         -0.3554924035        4.2652274444       -0.3958332269
 H         -0.4904704602        2.6162429046        1.4443398161
 H          1.4064074442        1.0955843364        1.8708322256
 H          4.5977373189       -0.0334844941       -1.4488281414
 H          3.6519637718       -1.5742821844       -2.9845201301
 H          1.8301421780       -3.1548081197       -3.4892715458
 H          0.0758503149       -3.6119888744       -1.8222431586
 C         -0.1475276061       -2.5091699548        0.7011282885
 H          0.3434616474       -2.3839085506        1.6799811411
 C         -0.7145359340       -3.9222892417        0.6876076006
 C         -1.9340916771       -4.2561194742        1.4937311282
 C         -1.9846641988       -4.3139536079       -0.0020038093
 H         -2.0227410738       -5.2852008056       -0.4735181662
 H         -2.5369019121       -3.5534789897       -0.5290022678
 H         -2.4364242199       -3.4372167540        1.9893272288
 H         -1.9507099783       -5.1805138296        2.0510972385
 H          0.0796955597       -4.6633041490        0.6888178895
 O         -1.7024882782       -1.5903759640       -1.6529377771
