  62
        -98.94127239
 C         -2.1390774532       -0.7443671816       -0.3684651575
 C         -3.3250211774       -0.8706790659        0.3993909869
 C         -3.9660998712        0.3826964522        0.8155316462
 C         -3.3843436173        1.5536434680        0.4984444817
 C         -3.9452097521        2.9069722509        0.8239551823
 C         -4.8356850466        3.4275942891       -0.3130719479
 C         -5.8743124864        2.4151970857       -0.7959304940
 H         -6.4638998629        2.9013004237       -1.5761568920
 H         -5.3596115361        1.5710603381       -1.2604132636
 C         -6.8109239167        1.8939705447        0.3029019725
 H         -7.8344454029        1.8998679997       -0.0776355926
 H         -6.7814737167        2.5635510652        1.1632161615
 C         -6.5157107910        0.4651551890        0.7631897474
 H         -6.4513465656       -0.1938559949       -0.1062286333
 H         -7.3572719567        0.1233336348        1.3714286274
 C         -5.2435897947        0.2827542415        1.6008657040
 H         -5.2427251941        0.9938941258        2.4295230341
 H         -5.2607485245       -0.7287339478        2.0170583539
 H         -5.3389889912        4.3331010995        0.0304722517
 H         -4.1969597066        3.6931238982       -1.1585655392
 H         -4.5164802721        2.8444655662        1.7481333367
 H         -3.1125129443        3.5974708201        0.9689008273
 O         -2.2284370520        1.6364766778       -0.2060721749
 C         -1.5798652449        0.4989358365       -0.6650101835
 O         -0.5450548515        0.7420599089       -1.3157525003
 H          1.0837416519       -1.1283246459       -1.3732976772
 C          1.0232499296       -1.6136502634       -0.4121729146
 C         -0.1806932420       -2.1560544560        0.0100516970
 C         -0.2396466528       -2.7480431361        1.2685075946
 C          0.8768066979       -2.7888587177        2.0832311998
 C          2.0715532165       -2.2278897440        1.6668203384
 C          2.1365439868       -1.6289432320        0.4165282598
 N          3.3421402355       -1.0274836085       -0.0038770077
 S          4.0027761237        0.0705605549        1.1022133027
 O          4.8208837762       -0.6669173091        2.0338590569
 O          2.9588227411        0.8801884410        1.6909603018
 C          5.0360223901        1.0624187004        0.0420824976
 C          4.4473391115        2.0856224040       -0.6774823935
 C          5.2361512380        2.8492329966       -1.5231780581
 C          6.5915576308        2.5765147918       -1.6360756528
 C          7.1668881634        1.5458883161       -0.9082950983
 C          6.3839709783        0.7780588457       -0.0604925633
 H          6.7857877442       -0.0290005793        0.5294634142
 H          8.2209619762        1.3388125155       -0.9980787828
 H          7.2019447576        3.1737637646       -2.2948273350
 H          4.7900532101        3.6514160482       -2.0889741150
 H          3.3908673081        2.2694407319       -0.5542414402
 H          3.2238252895       -0.5746349625       -0.9014039871
 H          2.9437690223       -2.2223621280        2.3009502917
 H          0.8152130014       -3.2507242374        3.0573576621
 H         -1.1807179893       -3.1558189923        1.6105495928
 C         -1.4415817753       -2.0230291834       -0.8075598651
 H         -2.1211409457       -2.8366493073       -0.5214553119
 C         -1.2156983304       -2.0801855082       -2.3034341388
 C         -0.8598246121       -3.3905040842       -2.9377509070
 C         -2.2134318443       -2.7902775343       -3.1666907667
 H         -2.4381773996       -2.3775594089       -4.1387724970
 H         -3.0634758924       -3.2441003232       -2.6786423439
 H         -0.7898434978       -4.2519316606       -2.2910146813
 H         -0.1536606573       -3.3941146743       -3.7536826251
 H         -0.7671268037       -1.1817036785       -2.7081251997
 O         -3.8250904478       -1.9823104864        0.7180366931
