  62
        -98.94369205
 C         -1.2529741050       -0.8902402857        0.2341326526
 C         -1.6960571530        0.2646194107        0.9269645416
 C         -2.7284906612        1.0679158538        0.2607708599
 C         -3.1225589552        0.7286012806       -0.9796674280
 C         -4.1983584527        1.4263261535       -1.7593276561
 C         -5.5722089990        0.7907814239       -1.5027908399
 C         -5.8965200619        0.5964967121       -0.0215626044
 H         -6.8998234597        0.1694587284        0.0382465520
 H         -5.2081970652       -0.1396860008        0.3998356355
 C         -5.8365967811        1.8821490212        0.8150678018
 H         -5.8820495737        2.7527376337        0.1597682062
 H         -6.7136673662        1.9187419293        1.4645560828
 C         -4.6076895719        1.9934124555        1.7193208841
 H         -4.7708862325        2.8210226650        2.4146352340
 H         -4.5067282986        1.0816229871        2.3134421355
 C         -3.2751189260        2.2533974400        1.0051288083
 H         -2.5293669516        2.4975198262        1.7676593038
 H         -3.3740383835        3.1131860276        0.3387098543
 H         -6.3346926312        1.4205418208       -1.9647172782
 H         -5.5971771213       -0.1864880898       -1.9905150637
 H         -3.9601691031        1.3443210364       -2.8213356588
 H         -4.2142305170        2.4790835249       -1.4830157490
 O         -2.6056718875       -0.3285961996       -1.6541463234
 C         -1.6578265501       -1.1628925099       -1.0734114801
 O         -1.2715466038       -2.0802704751       -1.8210919042
 O         -1.2423548739        0.6094801218        2.0515862781
 C         -0.1979081710       -1.7490940211        0.9063038895
 C          0.9899542700       -1.9302718196       -0.0057541775
 C          1.6187343510       -3.1454292549       -0.2417115479
 C          2.7268761225       -3.2077098787       -1.0697440124
 C          3.2444904986       -2.0681057840       -1.6573828388
 C          2.6190627943       -0.8470189637       -1.4299626334
 C          1.5025976264       -0.7918751073       -0.6139540140
 H          1.0026136124        0.1541232451       -0.4732778890
 N          3.1017950063        0.3380636953       -2.0038200985
 S          2.9515483664        1.7799285100       -1.1748623074
 O          1.5967285441        2.2689598918       -1.2488929943
 O          3.9603638992        2.6345112804       -1.7649968816
 C          3.3997024376        1.3941574225        0.5090251927
 C          4.7082372312        1.0195665233        0.7477480818
 C          5.0842486106        0.6710520656        2.0341355475
 C          4.1479995305        0.6973414117        3.0569987999
 C          2.8410113809        1.0819391406        2.8033743737
 C          2.4600318900        1.4357300626        1.5182581176
 H          1.4468304192        1.7330631592        1.2953711178
 H          2.1058249108        1.1028620879        3.5922597669
 H          4.4373497450        0.4188888035        4.0580178391
 H          6.1017097049        0.3770456958        2.2350540561
 H          5.4094013002        1.0206981855       -0.0708275416
 H          3.9839541442        0.2583628805       -2.4867497766
 H          4.1114285785       -2.1204567309       -2.2977472604
 H          3.1999633703       -4.1600915445       -1.2547203762
 H          1.2317432759       -4.0472470049        0.2029848536
 H          0.1412749749       -1.1323444363        1.7570873090
 C         -0.7189823955       -3.0488453381        1.5017592826
 C         -2.1755861381       -3.2385218030        1.8001926550
 C         -1.5257217995       -4.0303764917        0.7074085914
 H         -1.3567311029       -5.0845587481        0.8723614014
 H         -1.7499642579       -3.7763834209       -0.3162951853
 H         -2.4517623339       -3.7444394695        2.7133037127
 H         -2.8519633277       -2.4439682704        1.5187535105
 H         -0.0285643282       -3.4666103128        2.2279345808
