  62
        -98.94027265
 C         -1.7898619115       -1.0989050597       -0.2272662274
 C         -3.1398126911       -1.3650842754        0.0961256672
 C         -4.1252770057       -0.3522091905       -0.3208778741
 C         -3.6984433575        0.7416538579       -0.9760188468
 C         -4.5219427729        1.9130037424       -1.4355200784
 C         -4.5214729402        3.0271754334       -0.3747540894
 C         -5.6092730804        2.9023573724        0.6912327223
 H         -5.4181017669        3.6721079663        1.4424480862
 H         -6.5800620020        3.1189859156        0.2405225839
 C         -5.6875460638        1.5425218944        1.3900448802
 H         -4.6811627178        1.1905822055        1.6239467932
 H         -6.2092303936        1.6828578810        2.3387728878
 C         -6.4327227608        0.4820871096        0.5658877603
 H         -7.2031675717        0.0179784112        1.1852081633
 H         -6.9525315612        0.9708982146       -0.2578655261
 C         -5.5582879287       -0.6570295254        0.0215978519
 H         -6.0428438115       -1.0884111185       -0.8608299505
 H         -5.4997994976       -1.4576251459        0.7658582893
 H         -3.5380056149        3.0351357353        0.1020326137
 H         -4.6493945217        3.9884371626       -0.8764472560
 H         -4.0432593218        2.2933893761       -2.3402564220
 H         -5.5332679207        1.6019143257       -1.6795063789
 O         -2.3864663164        0.9564992561       -1.2710798930
 C         -1.4025754417        0.0530086486       -0.9095296861
 O         -0.2501827724        0.3849303860       -1.2440214612
 O         -3.5059998114       -2.3992486637        0.7178164051
 C         -0.7235602564       -2.1034536941        0.1690518253
 C          0.3320854724       -1.4344504661        1.0130092497
 C         -0.0646084703       -0.7310456379        2.1487132283
 C          0.8642059080       -0.0986821057        2.9510668598
 C          2.2111472304       -0.1466303649        2.6338292828
 C          2.6187304284       -0.8507267193        1.5085539470
 C          1.6830105148       -1.4993488991        0.7122471357
 H          2.0319972160       -2.0325400778       -0.1554779183
 N          3.9829668993       -0.9414728353        1.1717555358
 S          4.5028157620       -0.4246851476       -0.3342541627
 O          3.8436128879       -1.1782139429       -1.3678825584
 O          5.9443763167       -0.5387297300       -0.2805747161
 C          4.0504841487        1.2998484259       -0.4000837082
 C          5.0213275120        2.2429850661       -0.1198694450
 C          4.6736031581        3.5834498291       -0.1060573371
 C          3.3624593495        3.9568487902       -0.3617028347
 C          2.4006583125        2.9972761087       -0.6356379132
 C          2.7408341986        1.6528098475       -0.6565020441
 H          1.9990948998        0.8996868637       -0.8718840526
 H          1.3776470835        3.2747762806       -0.8352902520
 H          3.0879700790        5.0000232780       -0.3487491083
 H          5.4217043423        4.3306171192        0.1049221096
 H          6.0277217419        1.9058285471        0.0695268279
 H          4.5999528680       -0.5660958105        1.8789895218
 H          2.9397352923        0.3525691779        3.2546347832
 H          0.5391087753        0.4423191565        3.8268787420
 H         -1.1178822902       -0.6876456641        2.3911993342
 H         -1.2402795143       -2.8496223387        0.7910016733
 C         -0.1719545923       -2.7969211529       -1.0586347760
 C          0.3840808225       -4.1843779196       -0.9525186829
 C         -0.9265802282       -3.9525820017       -1.6409695389
 H         -0.9712686670       -4.0506938069       -2.7153400472
 H         -1.8317625530       -4.2573991352       -1.1361352886
 H          1.2441996553       -4.4395581060       -1.5533765615
 H          0.3703581421       -4.6550823241        0.0189639447
 H          0.3030287873       -2.1115679159       -1.7529084246
