  62
        -98.93468125
 C          1.7393806019        0.4600989961        1.1417702816
 C          1.9675531912        0.2274484413       -0.2352089853
 C          3.3620598396        0.3639148898       -0.7018673795
 C          4.3327605811        0.6736289090        0.1765597370
 C          5.8145863295        0.9186063167       -0.0184746173
 C          6.5147765695        0.4901982683       -1.3055823240
 C          6.5891122778       -1.0208870459       -1.5221139940
 H          7.2718090457       -1.4450339620       -0.7813628751
 H          7.0167731320       -1.2031926239       -2.5104424940
 C          5.2637289829       -1.7703448887       -1.4085696120
 H          4.8782071357       -1.6817110883       -0.3906749524
 H          5.4638515843       -2.8309771245       -1.5838562561
 C          4.1777350847       -1.3344551751       -2.3903381632
 H          3.3532687714       -2.0477348690       -2.3057416373
 H          4.5626408580       -1.3868239089       -3.4106332429
 C          3.5964668441        0.0705958557       -2.1555879980
 H          2.6162365494        0.1133551168       -2.6390797876
 H          4.2193480494        0.8383434383       -2.6081366068
 H          7.5401669882        0.8643013286       -1.2401307844
 H          6.0576878890        0.9752410945       -2.1629664222
 H          6.3084595028        0.4405123392        0.8334758171
 H          5.9572282865        1.9974453773        0.1096466859
 O          4.0645475077        0.8724799642        1.5013308169
 C          2.7866639048        0.7522827696        2.0164530178
 O          2.7153969489        0.9188489335        3.2506615942
 O          1.0619330048       -0.0738196795       -1.0535859689
 C          0.3566300800        0.3248861474        1.7549869234
 C         -0.3187741748       -0.9207071301        1.2360956871
 C          0.3124052555       -2.1484867129        1.4236024432
 C         -0.2608534367       -3.3161450732        0.9615436121
 C         -1.4896051302       -3.2890533725        0.3244829504
 C         -2.1308614262       -2.0716881785        0.1391639394
 C         -1.5422860956       -0.8972064370        0.5877759199
 H         -2.0455677855        0.0375030923        0.4086650652
 N         -3.3704230305       -2.0020096419       -0.5133460402
 S         -4.5456609008       -0.9583407882        0.0549168971
 O         -4.4801664663       -0.8139541476        1.4911469219
 O         -5.7874045798       -1.4856976847       -0.4711769116
 C         -4.2096249789        0.6018879699       -0.7336502468
 C         -3.8537884361        0.6163099617       -2.0674402877
 C         -3.6366911030        1.8358605261       -2.6882275775
 C         -3.7865263948        3.0139823565       -1.9726519775
 C         -4.1484371087        2.9828053845       -0.6345538519
 C         -4.3628183483        1.7657819139       -0.0066164525
 H         -4.6340392417        1.6950453821        1.0348773543
 H         -4.2625578083        3.8998780164       -0.0783016509
 H         -3.6164379426        3.9618361762       -2.4585987217
 H         -3.3503958014        1.8641390622       -3.7272107762
 H         -3.7443264030       -0.3170560155       -2.5934625236
 H         -3.7579301415       -2.8901217334       -0.7959638653
 H         -1.9431794176       -4.2014158568       -0.0324506896
 H          0.2467287568       -4.2584084700        1.1053219646
 H          1.2696224053       -2.1708666647        1.9280668517
 H          0.5367560531        0.1790698257        2.8337454733
 C         -0.5055977686        1.5716576674        1.6245019441
 C          0.1140502240        2.9353502907        1.5699427308
 C         -0.5647257577        2.3719459933        0.3594983176
 H         -1.5158841260        2.7887281378        0.0624171224
 H          0.0430094825        2.0403544714       -0.4668596357
 H         -0.3690259593        3.7376296388        2.1070527777
 H          1.1928581513        2.9947515443        1.5752772714
 H         -1.4275543869        1.4852876270        2.1928203033
