  62
        -98.94585363
 C          1.6923514102        1.3138108610        0.4216038804
 C          1.2979825006        0.2241500010       -0.3914262198
 C          1.9089308507       -1.0705358589       -0.0696700097
 C          2.7354663205       -1.1793220888        0.9847055805
 C          3.4143353106       -2.4369475988        1.4552900405
 C          4.7110668508       -2.7681303085        0.7031613308
 C          4.5246992912       -3.2725189285       -0.7285400393
 H          5.4872704413       -3.6717897783       -1.0542114391
 H          3.8118177313       -4.0976188286       -0.7301561795
 C          4.0730037813       -2.1968141684       -1.7261196893
 H          4.2535391810       -1.2073278885       -1.2997815892
 H          4.6738078515       -2.2683790183       -2.6354117192
 C          2.6053606414       -2.2956882086       -2.1422151997
 H          2.3847891614       -1.4667907486       -2.8192128896
 H          2.4403624616       -3.2285901786       -2.6854149198
 C          1.6145189011       -2.2300642789       -0.9724538399
 H          1.6318825411       -3.1618855089       -0.4071750299
 H          0.6081404212       -2.0909317990       -1.3749670601
 H          5.3468026407       -1.8795705384        0.6975559810
 H          5.2284430508       -3.5425152685        1.2742652008
 H          2.7200284007       -3.2748072289        1.3808121503
 H          3.6557643003       -2.2824769288        2.5094370106
 O          3.0427704802       -0.1218405589        1.7833054906
 C          2.5293551600        1.1386038211        1.5250999806
 O          2.8838956297        2.0119896211        2.3442511707
 O          0.4798669108        0.3163273310       -1.3432992599
 C          1.1193842801        2.7059424010        0.2143557204
 C         -0.3728068099        2.6065546807        0.0055555200
 C         -1.0578904997        3.2266157307       -1.0312447901
 C         -2.4278133897        3.0712896805       -1.1595844404
 C         -3.1367740397        2.2760585804       -0.2785579406
 C         -2.4591672999        1.6514576204        0.7622533995
 C         -1.0978173799        1.8463925606        0.9161741998
 H         -0.5870008100        1.3539452306        1.7318998599
 N         -3.1222149299        0.7948938002        1.6692999293
 S         -2.7063548597       -0.8289178097        1.5831031493
 O         -3.5339942798       -1.4835136799        2.5748388790
 O         -1.2829687297       -0.9816336595        1.7391538096
 C         -3.2384492692       -1.3290360697       -0.0455849109
 C         -4.4581741191       -1.9668749399       -0.1724754012
 C         -4.9176823488       -2.2936584398       -1.4376614713
 C         -4.1577299986       -1.9682144996       -2.5513834411
 C         -2.9389684787       -1.3243018095       -2.4063297508
 C         -2.4693752591       -0.9967374695       -1.1427609207
 H         -1.5215282792       -0.4972385794       -1.0099780404
 H         -2.3427074686       -1.0667447293       -3.2670589407
 H         -4.5160256883       -2.2178854096       -3.5376899612
 H         -5.8647469987       -2.7961986800       -1.5511231616
 H         -5.0120664293       -2.2005511900        0.7225375887
 H         -4.1301962300        0.8724712101        1.6331685691
 H         -4.2004110097        2.1311800802       -0.3952132009
 H         -2.9459859596        3.5593506505       -1.9707884705
 H         -0.5182964696        3.8165842009       -1.7535367799
 H          1.2883021998        3.2262417809        1.1723393805
 C          1.8299676802        3.5216393811       -0.8566134194
 C          3.2341283003        3.1998752414       -1.2714950791
 C          2.1010503106        2.9708897313       -2.2234421994
 H          2.0056627507        3.6326158113       -3.0719060294
 H          1.7895404208        1.9574525413       -2.4187861795
 H          3.9120180903        4.0189979115       -1.4599949289
 H          3.7058585504        2.3401929814       -0.8171988291
 H          1.5831357400        4.5769952211       -0.7946363094
