  62
        -98.94408231
 C          1.4959052080        1.5152324367        0.3817417755
 C          1.7652405105        0.3396785887        1.1247752905
 C          2.9103134158       -0.4566526171        0.6703178205
 C          3.6049952971       -0.0685144410       -0.4145441806
 C          4.8037018809       -0.7685600727       -0.9956755892
 C          4.4539328826       -1.9341058345       -1.9313429008
 C          3.9229915346       -3.1897523634       -1.2385460554
 H          4.6083739177       -3.4800228291       -0.4416613922
 H          3.9285467176       -3.9902783837       -1.9808437131
 C          2.5023940248       -3.0498035297       -0.6736325972
 H          1.9148281881       -3.9301731406       -0.9416289309
 H          2.0102744817       -2.1877903793       -1.1302158305
 C          2.4353352613       -2.9081184611        0.8465062353
 H          2.7998781885       -3.8235635694        1.3172411672
 H          1.3892679131       -2.7711164644        1.1276633552
 C          3.2283662799       -1.7220429044        1.4079219562
 H          4.2981007588       -1.9263345775        1.3669820865
 H          2.9387209758       -1.5792379062        2.4518613742
 H          5.3649748523       -2.2010703243       -2.4720231050
 H          3.7229313887       -1.5852222467       -2.6643883379
 H          5.4456587670       -1.1264996346       -0.1902659006
 H          5.3522382485       -0.0188659056       -1.5699880382
 O          3.2956568648        1.0517817185       -1.1191467996
 C          2.2376322445        1.8690599382       -0.7457976891
 O          2.0766931245        2.8581141630       -1.4848621163
 O          1.0881362640       -0.0208354261        2.1244184233
 C          0.3434061793        2.4016482310        0.8222867149
 C         -0.7351738841        2.3788907211       -0.2318042031
 C         -1.0005634095        3.4515252902       -1.0729279033
 C         -1.9817935577        3.3522641372       -2.0433852202
 C         -2.7332844631        2.1994543686       -2.1734042827
 C         -2.4819923518        1.1221549085       -1.3305499560
 C         -1.4779799432        1.2124681778       -0.3801074427
 H         -1.2769146091        0.3691797718        0.2662324898
 N         -3.2338456577       -0.0591485628       -1.4337235467
 S         -3.7944683128       -0.8034003564       -0.0396945097
 O         -5.0246025170       -1.4514437732       -0.4470471168
 O         -3.9017918124        0.1314610636        1.0548666690
 C         -2.6002633473       -2.0709497772        0.3202316381
 C         -2.3121990772       -2.9885514671       -0.6711574514
 C         -1.4473990424       -4.0322049232       -0.3864567107
 C         -0.8955488134       -4.1454023397        0.8808090170
 C         -1.1902053666       -3.2125253079        1.8633059819
 C         -2.0501098055       -2.1626209605        1.5823570214
 H         -2.2982498021       -1.4138131388        2.3179270952
 H         -0.7519528531       -3.2926242666        2.8453992658
 H         -0.2294835396       -4.9637323046        1.1051016079
 H         -1.2105206380       -4.7564978075       -1.1491526673
 H         -2.7731191370       -2.8746038790       -1.6381881773
 H         -3.9536854245       -0.0320855553       -2.1418829163
 H         -3.5096934917        2.1289414850       -2.9204543767
 H         -2.1717494349        4.1888759550       -2.6987077122
 H         -0.4281515530        4.3590213636       -0.9797903963
 H         -0.0618329574        1.9238732014        1.7257941027
 C          0.8230871611        3.7918459412        1.1820825849
 C         -0.0450453709        4.6771362378        2.0236611247
 C          1.2060569500        4.0870752430        2.5998910582
 H          2.0482116737        4.7381398630        2.7806956194
 H          1.1107324694        3.2871292198        3.3195610451
 H         -0.0637441244        5.7353290970        1.8120169160
 H         -0.9931637935        4.2769851566        2.3507740231
 H          1.4183601807        4.2522021998        0.4025029178
