  62
        -98.94416002
 C         -2.1977943774       -0.7711991341       -0.0592060550
 C         -2.9134324873       -0.1242094634        0.9755039642
 C         -3.6942495692        1.0514617713        0.5744828157
 C         -3.6571274751        1.4725398819       -0.7031544186
 C         -4.3761071363        2.6709670558       -1.2608695608
 C         -5.8343475934        2.3961518076       -1.6529932414
 C         -6.8011122836        2.2209139473       -0.4812200571
 H         -6.7007411110        3.0658048122        0.2008685778
 H         -7.8119335769        2.2528834855       -0.8925353478
 C         -6.6256613882        0.9074479050        0.2937354986
 H         -7.6036792961        0.4525943092        0.4659758050
 H         -6.0470445682        0.2031854922       -0.3084623885
 C         -5.9522012275        1.0608287504        1.6575659282
 H         -6.5880764059        1.6566289805        2.3161382292
 H         -5.8459196784        0.0674098555        2.1009809045
 C         -4.5616262216        1.7073743710        1.6061524277
 H         -4.6501742478        2.7754174332        1.4077681469
 H         -4.0830201843        1.5706119428        2.5792695992
 H         -6.1749030965        3.2427773177       -2.2534608532
 H         -5.8636255926        1.5063615940       -2.2859911961
 H         -4.3394835456        3.4890962430       -0.5408994638
 H         -3.8292162042        2.9711688189       -2.1572463158
 O         -2.9195518275        0.8484947025       -1.6595985428
 C         -2.1887432241       -0.2958190994       -1.3709009300
 O         -1.5825581654       -0.7767084559       -2.3457503333
 O         -2.8927913822       -0.5050270032        2.1780149191
 C         -1.3877236961       -2.0112224536        0.2687866485
 C          0.0711064151       -1.7908223664       -0.0496463282
 C          0.8609324957       -2.7316343644       -0.6968336761
 C          2.1974885295       -2.4717774986       -0.9471948330
 C          2.7750068596       -1.2775199315       -0.5589323830
 C          1.9987581026       -0.3349320004        0.1032105788
 C          0.6623982986       -0.6008718634        0.3576771598
 H          0.0594976723        0.1348507483        0.8770355582
 N          2.5731193266        0.8873777997        0.4947267411
 S          4.0065602897        0.8485861179        1.3692222687
 O          4.1180638999       -0.3632020923        2.1477750182
 O          4.0309619015        2.0920045970        2.1084402874
 C          5.2735364756        0.8916824907        0.1193421480
 C          5.2689648775        1.9436291340       -0.7755413427
 C          6.2518653687        1.9962042972       -1.7508490595
 C          7.2183354946        1.0032160410       -1.8128203852
 C          7.2112077735       -0.0443949017       -0.9047089429
 C          6.2303214795       -0.1032844458        0.0731254349
 H          6.1816975427       -0.9007549748        0.7973567739
 H          7.9635447417       -0.8150263789       -0.9545166021
 H          7.9815848891        1.0466635532       -2.5736343764
 H          6.2604565707        2.8091850318       -2.4589018806
 H          4.5023914408        2.6958975302       -0.6913581927
 H          1.9165754597        1.5253687749        0.9206620546
 H          3.8129016061       -1.0690595528       -0.7603056894
 H          2.7971123111       -3.2095969008       -1.4579298531
 H          0.4295302936       -3.6679406810       -1.0101890894
 H         -1.4795395138       -2.1403938790        1.3583017507
 C         -1.9822813518       -3.2244503022       -0.4157354909
 C         -1.8647017565       -4.5812488346        0.2097892296
 C         -3.1869473271       -3.8767867247        0.1913824726
 H         -3.9611221194       -4.2444981037       -0.4652426884
 H         -3.5606334119       -3.4628042045        1.1168018923
 H         -1.7333077684       -5.4370543442       -0.4349981284
 H         -1.3431818744       -4.6538937567        1.1522931878
 H         -1.9445240318       -3.1506751015       -1.4967952738
