  62
        -98.94094041
 C          2.3185978713        0.8159735802       -0.1408038513
 C          3.6003701121        1.1878202704        0.3311611329
 C          4.7320952894        0.4596889715       -0.2524022868
 C          4.5087455745       -0.4771872601       -1.1921431029
 C          5.5610799524       -1.2852128445       -1.9023162742
 C          6.0238656805       -2.5271300264       -1.1280474333
 C          6.9039743732       -2.2436567746        0.0899634774
 H          7.3307406348       -3.1977471767        0.4055083828
 H          7.7318091230       -1.5978327912       -0.2041607358
 C          6.1583848866       -1.6196895671        1.2778725162
 H          5.0831889428       -1.7653911456        1.1493804160
 H          6.4431605114       -2.1348671277        2.1980311432
 C          6.4346345574       -0.1309039670        1.4881847670
 H          7.4857681876        0.0137621445        1.7470743621
 H          5.8297383387        0.2145443369        2.3304313781
 C          6.1047402850        0.7499585853        0.2758892381
 H          6.1229239774        1.7946349478        0.5956264879
 H          6.8509909106        0.6097000514       -0.5056142830
 H          6.5913976681       -3.1507211953       -1.8226431079
 H          5.1422588303       -3.0929600411       -0.8179193476
 H          6.4205887466       -0.6522917836       -2.1247361763
 H          5.1164678193       -1.6126849874       -2.8445311199
 O          3.2607531496       -0.7930508400       -1.6323275634
 C          2.1358647948       -0.1730551358       -1.1066278265
 O          1.0573936539       -0.5824776441       -1.5790499988
 O          3.7879150184        2.0826210732        1.1983607019
 C          1.0975584068        1.5205792111        0.4203140105
 C          0.1477909646        0.5204949090        1.0314209354
 C          0.6459562885       -0.4107030129        1.9397676130
 C         -0.1861362156       -1.3497263142        2.5160750344
 C         -1.5329093723       -1.3806733172        2.1991862692
 C         -2.0448066775       -0.4456431437        1.3079138103
 C         -1.2061872712        0.5022752080        0.7365722571
 H         -1.6262569489        1.2107956296        0.0438103518
 N         -3.4223080216       -0.4266992791        1.0204274841
 S         -3.9688390975       -0.0876141916       -0.5404415956
 O         -3.4154663686       -1.0293477062       -1.4884255536
 O         -3.7615973735        1.3096922494       -0.8224605975
 C         -5.7110564658       -0.3979378556       -0.3130967984
 C         -6.4794004681        0.5737531928        0.2997832907
 C         -7.8276401055        0.3299728658        0.5070179543
 C         -8.3825424367       -0.8747607185        0.1011212072
 C         -7.5996187414       -1.8395545252       -0.5144799364
 C         -6.2499735880       -1.6023206500       -0.7235984491
 H         -5.6045520335       -2.3188905510       -1.2059913089
 H         -8.0340621172       -2.7737295138       -0.8321351185
 H         -9.4323279923       -1.0619045985        0.2630108842
 H         -8.4402046864        1.0786334053        0.9828586142
 H         -6.0063645668        1.4972436486        0.5898296548
 H         -3.8917490419       -1.2514993904        1.3714621517
 H         -2.1823027184       -2.1210877751        2.6415176919
 H          0.2166579726       -2.0700521998        3.2124264823
 H          1.7005865997       -0.3916252664        2.1801156002
 H          1.4781683831        2.1688989675        1.2243834103
 C          0.4585472491        2.3907674114       -0.6410687593
 C         -0.3033189392        3.6207409865       -0.2508290879
 C          1.0330052384        3.7467190645       -0.9168008446
 H          1.0723700729        4.0914010832       -1.9392395770
 H          1.8763746488        4.0569327304       -0.3172147961
 H         -1.1897622111        3.8735149673       -0.8132462482
 H         -0.3685740960        3.8527232288        0.8014761037
 H          0.0996121347        1.8173363135       -1.4899824899
