  62
        -98.94293455
 C          2.0194225055        0.4814634181        0.0764917963
 C          2.6708579113       -0.7779765526        0.1542115006
 C          4.0370246000       -0.8454354048       -0.3785185379
 C          4.5851973566        0.2596148322       -0.9152782570
 C          5.9840191067        0.3530128041       -1.4505646436
 C          6.9680589037        0.8003496514       -0.3605828171
 C          6.8449192153        0.0123723175        0.9434928339
 H          7.6067560070        0.3931014008        1.6271678711
 H          5.8731861438        0.2219946884        1.3963887846
 C          7.0120544621       -1.5054491190        0.7859915067
 H          7.4972322492       -1.7286625284       -0.1648969041
 H          7.6691242198       -1.8699266364        1.5784742559
 C          5.7090415305       -2.3007430680        0.8876547981
 H          5.9632003634       -3.3599393653        0.9824602754
 H          5.1725128662       -2.0117588596        1.7950455536
 C          4.7499605229       -2.1661705547       -0.3019546077
 H          5.2867133798       -2.3680783319       -1.2313164848
 H          3.9679884296       -2.9225418025       -0.1858430159
 H          6.7861971509        1.8549440847       -0.1414646286
 H          7.9827097752        0.7042758752       -0.7512345353
 H          6.2802779605       -0.6161829185       -1.8472740130
 H          5.9941968990        1.0856278731       -2.2592441286
 O          3.9292962183        1.4426515108       -0.9886347880
 C          2.6392552020        1.5919823554       -0.4977522045
 O          2.1875097261        2.7440911353       -0.6442884336
 H         -1.3196842815       -1.3296503184        0.4601740561
 C         -1.3646043398       -0.6178776899       -0.3502240982
 C         -0.4400247863        0.4135873988       -0.4259335367
 C         -0.5216203937        1.3093115799       -1.4878664108
 C         -1.5015016011        1.1641142682       -2.4522888905
 C         -2.4320225498        0.1427735026       -2.3650932841
 C         -2.3640721027       -0.7519354338       -1.3049696006
 N         -3.3041762172       -1.7935935111       -1.1726868876
 S         -4.2336303361       -1.8295693349        0.2203774798
 O         -3.3905571691       -2.0393749989        1.3681836102
 O         -5.2479880206       -2.8286614475       -0.0284008763
 C         -4.9810418354       -0.2103457024        0.2861236210
 C         -6.2491473915       -0.0403016199       -0.2345757634
 C         -6.8026574942        1.2296769890       -0.2529095553
 C         -6.0765609640        2.3052135169        0.2359209044
 C         -4.8033338410        2.1185230540        0.7519496244
 C         -4.2463979978        0.8496477384        0.7801100807
 H         -3.2597986117        0.6720074767        1.1759243341
 H         -4.2366507342        2.9543162382        1.1297346592
 H         -6.5045878826        3.2950360331        0.2162737941
 H         -7.7938072114        1.3771280956       -0.6506632514
 H         -6.7774664940       -0.9054049289       -0.6016525199
 H         -3.9038303918       -1.9024609327       -1.9790436081
 H         -3.2015530932        0.0352808129       -3.1147051806
 H         -1.5480027508        1.8604586503       -3.2756700204
 H          0.1960750092        2.1123796548       -1.5528779979
 C          0.6136387345        0.5508429729        0.6474903359
 H          0.5291626049       -0.3273104092        1.3028214046
 C          0.3512947167        1.7913300518        1.4798053126
 C         -0.7044802881        1.7388875811        2.5416943080
 C          0.7434556672        1.8008798638        2.9250855094
 H          1.1297219753        2.7162259337        3.3473535242
 H          1.2027968076        0.9082272129        3.3248252811
 H         -1.3158954858        2.6127343748        2.7062571595
 H         -1.2229662188        0.8021286167        2.6891563612
 H          0.4690845077        2.7139460437        0.9269240866
 O          2.1316061685       -1.8018967038        0.6553747065
