  62
        -98.93736489
 C          2.2843661031       -0.4746805754        0.2903605494
 C          3.5265183080       -0.9279481019        0.8042476695
 C          4.7111212179       -0.6517039861       -0.0183832210
 C          4.5547074128       -0.0456823937       -1.2090660090
 C          5.6767617308        0.3491816463       -2.1240293478
 C          6.1537646678        1.7787659365       -1.8314172659
 C          6.4225288687        2.0501604780       -0.3511014712
 H          6.7809219861        3.0785702249       -0.2689686008
 H          5.4797479181        1.9952532168        0.1983807526
 C          7.4414716880        1.1005103570        0.2943705277
 H          8.0277251641        0.6046403466       -0.4800248962
 H          8.1343449639        1.6894297329        0.8989933013
 C          6.8296393645        0.0462177609        1.2188056649
 H          6.1676362182        0.5314950445        1.9407735348
 H          7.6399356625       -0.4227897628        1.7831905843
 C          6.0467645379       -1.0754194666        0.5246500839
 H          6.6596147382       -1.5193010019       -0.2623347020
 H          5.8348678130       -1.8454989097        1.2722089355
 H          7.0619164412        1.9643265562       -2.4077440439
 H          5.3856310121        2.4765594495       -2.1728984735
 H          6.5003843735       -0.3518090233       -2.0032590994
 H          5.3153842982        0.2991443101       -3.1524356109
 O          3.3428673073        0.3180510931       -1.6982349078
 C          2.1767225455        0.1221186655       -0.9667773554
 O          1.1489612955        0.5112479824       -1.5509321628
 H         -1.4358580305        0.3502092739        0.5250659304
 C         -1.2698453510       -0.6274404673        0.1043289965
 C         -0.0690745212       -1.2889286037        0.3000808609
 C          0.1098782848       -2.5360707185       -0.2942147045
 C         -0.8875290159       -3.1025603789       -1.0629046070
 C         -2.0940803005       -2.4477377529       -1.2388037921
 C         -2.2797693153       -1.2003107645       -0.6563753136
 N         -3.4813837606       -0.4970540367       -0.8341991527
 S         -4.0593678226        0.4382627416        0.4447881289
 O         -3.4670220196        1.7505456007        0.3813934044
 O         -3.8955982943       -0.2750972184        1.6920528802
 C         -5.7882063355        0.5383079218        0.0161445862
 C         -6.6753777712       -0.3640914816        0.5722662860
 C         -8.0117587527       -0.3007400546        0.2101970331
 C         -8.4357025051        0.6565707522       -0.6992298368
 C         -7.5338211714        1.5559759655       -1.2484585020
 C         -6.1963231078        1.4988809090       -0.8899888368
 H         -5.4608254151        2.1811897694       -1.2835482848
 H         -7.8674411319        2.3007967199       -1.9528506826
 H         -9.4760816778        0.7041717173       -0.9796128314
 H         -8.7157193866       -0.9962378103        0.6379592850
 H         -6.3017682322       -1.0846911924        1.2818965717
 H         -4.2097963928       -1.0543333116       -1.2584679471
 H         -2.8781367978       -2.8923068351       -1.8329146762
 H         -0.7306193744       -4.0677212507       -1.5208824651
 H          1.0498635962       -3.0517467453       -0.1489726040
 C          1.0481175746       -0.7188322113        1.1359185427
 H          1.3584828483       -1.4966232366        1.8549777745
 C          0.6147459614        0.4825568645        1.9624866473
 C          1.6147464352        1.4761288598        2.4707361883
 C          0.6270301469        1.8783813057        1.4188784680
 H         -0.1845379281        2.5379296142        1.6917735939
 H          0.9745675094        2.0181115383        0.4070617056
 H          2.6454265702        1.3407449107        2.1763569412
 H          1.4920880811        1.8637121691        3.4708207066
 H         -0.2026026522        0.2351466285        2.6348892021
 O          3.6375135674       -1.5403544374        1.8999994086
