  62
        -98.94155274
 C          1.3189463428        1.5604900260       -0.1551831938
 C          2.4725608558        1.1876979001        0.5668871380
 C          3.1419192754       -0.0569539672        0.1485442715
 C          2.6376967888       -0.7536314539       -0.8861983495
 C          3.1112438681       -2.0610399336       -1.4703587001
 C          4.6265403293       -2.2558899426       -1.6295009472
 C          5.2201597941       -3.2598875657       -0.6394663040
 H          4.5160900990       -4.0862269771       -0.5205948939
 H          6.1377337591       -3.6710751978       -1.0662323206
 C          5.5652461894       -2.6919925824        0.7359442044
 H          5.8422588837       -3.5299428456        1.3799041612
 H          6.4397901110       -2.0433118552        0.6510290812
 C          4.4446970278       -1.9025862922        1.4153635140
 H          3.4831630709       -2.3960252717        1.2698993771
 H          4.6392438406       -1.9006596762        2.4902799860
 C          4.3553813412       -0.4407332355        0.9505887181
 H          5.2548156342       -0.1706937962        0.3901170950
 H          4.3312674835        0.2208369326        1.8222717813
 H          4.8059345508       -2.6340419758       -2.6372582502
 H          5.1346886340       -1.2964930531       -1.5494399384
 H          2.6902021922       -2.8687637385       -0.8649284100
 H          2.6253299896       -2.1246401680       -2.4469960124
 O          1.5307500541       -0.3447805082       -1.5675050829
 C          0.8286432120        0.7876650498       -1.2053004806
 O         -0.1896715068        1.0059697192       -1.8909320497
 O          2.9207493265        1.8615891739        1.5362873543
 C          0.5340076999        2.7877913837        0.2684701674
 C         -0.8904593647        2.3985507033        0.5808725955
 C         -1.9891580852        3.1731397009        0.2295555058
 C         -3.2733749633        2.7445877178        0.5195614498
 C         -3.4911742780        1.5285075074        1.1409036083
 C         -2.3977637142        0.7521152206        1.5057840837
 C         -1.1136812662        1.2039569492        1.2539782641
 H         -0.2772587103        0.5866040279        1.5482101103
 N         -2.5552630118       -0.5121220116        2.1150445660
 S         -2.0456479492       -1.8333350166        1.2142628055
 O         -2.3803039280       -2.9885983141        2.0204028001
 O         -0.6579898806       -1.6850782366        0.8597047019
 C         -3.0942306023       -1.8002777368       -0.2288760280
 C         -2.7972090289       -0.9412738772       -1.2677990094
 C         -3.6726669876       -0.8709593897       -2.3416029246
 C         -4.8189553082       -1.6499237533       -2.3582622861
 C         -5.1012404809       -2.5081796124       -1.3057748569
 C         -4.2351523873       -2.5808450901       -0.2274373910
 H         -4.4101106725       -3.2344465159        0.6120229779
 H         -5.9915006057       -3.1160438531       -1.3210461787
 H         -5.4942032929       -1.5878028138       -3.1970730726
 H         -3.4442667220       -0.2012821722       -3.1552059968
 H         -1.8966876093       -0.3466100792       -1.2426122832
 H         -3.4951870319       -0.6877574239        2.4450358479
 H         -4.4932389863        1.1796200960        1.3403057620
 H         -4.1164236105        3.3568979410        0.2385137364
 H         -1.8396472974        4.1113016483       -0.2794532390
 H          1.0120035736        3.1395957911        1.1952382573
 C          0.6416752049        3.8759169646       -0.7803282751
 C          0.6102542444        5.3209521590       -0.3829480247
 C          1.8931736141        4.6976695778       -0.8414912441
 H          2.2849292526        4.9694029614       -1.8101492780
 H          2.6560283344        4.4896782678       -0.1053708434
 H          0.1229738008        6.0258532250       -1.0396070553
 H          0.5071056746        5.5490663862        0.6671318427
 H          0.1837314334        3.5903547837       -1.7208980061
