  62
        -98.94124177
 C         -2.5994611860       -1.1889783089        0.4012151196
 C         -2.4424887607       -0.4228534625       -0.7812892685
 C         -3.2141184243        0.8296753642       -0.8410287183
 C         -3.9942868710        1.1806030795        0.1962672915
 C         -4.7839990523        2.4534064709        0.2877797142
 C         -3.9672623054        3.5639174332        0.9633465389
 C         -2.5593800696        3.7326289677        0.3907119031
 H         -1.9699383800        2.8386042554        0.6104976875
 H         -2.0875597847        4.5619791560        0.9226208751
 C         -2.5157168832        4.0042361964       -1.1194980908
 H         -1.8038451821        4.8105248681       -1.3085114769
 H         -3.4932031678        4.3456767190       -1.4626358368
 C         -2.0691781972        2.8116082609       -1.9677083291
 H         -1.1292445012        2.4115789339       -1.5754977566
 H         -1.8677937485        3.1726792287       -2.9799860841
 C         -3.0774888351        1.6612058581       -2.0850663975
 H         -2.7134421896        0.9825939244       -2.8620416800
 H         -4.0477706671        2.0538112552       -2.3963154768
 H         -3.8777695548        3.3306603050        2.0269132935
 H         -4.5141809307        4.5033361832        0.8663182777
 H         -5.6792491465        2.2613374831        0.8814980170
 H         -5.0812557117        2.7632185022       -0.7120056273
 O         -4.1078102497        0.4285497816        1.3209524747
 C         -3.3965108912       -0.7525515407        1.4619859181
 O         -3.5506295193       -1.3113425850        2.5667907833
 O         -1.7034463905       -0.7535120904       -1.7431087274
 C         -1.8245421905       -2.4779989379        0.6241430063
 C         -0.3795090453       -2.2607801505        0.2462870136
 C          0.2864897988       -2.9845018709       -0.7326880165
 C          1.6056891153       -2.6967153468       -1.0377346622
 C          2.2876654382       -1.6925746950       -0.3756890206
 C          1.6299836792       -0.9610728048        0.6048059264
 C          0.3117231831       -1.2555880101        0.9124004699
 H         -0.2044820406       -0.6794282106        1.6724979141
 N          2.3159349563        0.0600113141        1.2902170136
 S          3.0626251559        1.2508932616        0.3673261656
 O          3.1379702622        2.4049817905        1.2379625772
 O          2.3966827946        1.4443443648       -0.8993250946
 C          4.7043607122        0.6118571560        0.1104714939
 C          5.1906654593        0.4557998449       -1.1725639724
 C          6.4728815460       -0.0420012694       -1.3466946678
 C          7.2412219494       -0.3722284858       -0.2408476146
 C          6.7388069765       -0.2064209803        1.0413979513
 C          5.4586169208        0.2918745989        1.2224230751
 H          5.0314917940        0.4396795444        2.2002008732
 H          7.3393264824       -0.4642779189        1.8987820585
 H          8.2375442497       -0.7613521860       -0.3792451483
 H          6.8650283422       -0.1710309244       -2.3426922067
 H          4.5535676850        0.7197378408       -2.0018122613
 H          1.7673247126        0.4870823037        2.0231733804
 H          3.3123881899       -1.4619007137       -0.6172781055
 H          2.1090288087       -3.2602326404       -1.8085326158
 H         -0.2359850691       -3.7524417028       -1.2787020218
 H         -1.8632711525       -2.6442669905        1.7137804634
 C         -2.4432350332       -3.7091257012       -0.0196004697
 C         -3.9235974688       -3.8026866213       -0.2354541224
 C         -3.0000140438       -3.7005079107       -1.4101334554
 H         -2.8556196843       -4.5782519770       -2.0231810761
 H         -2.9607396435       -2.7733379245       -1.9589103783
 H         -4.4114454279       -4.7461240721       -0.0415949251
 H         -4.5218390697       -2.9408304874        0.0233165303
 H         -1.9482925899       -4.6206776156        0.3011929182
