  62
        -98.94488740
 C         -1.9392682002        0.3976423424        0.6850606231
 C         -2.9850131289        1.2693780152        0.2965426265
 C         -4.3360103989        0.6990685689        0.3233851348
 C         -4.5145304530       -0.5742882732        0.7198865340
 C         -5.8336549603       -1.2907793983        0.8244088371
 C         -6.3227061212       -1.8945835349       -0.4993075021
 C         -6.8265654336       -0.8826728846       -1.5292356873
 H         -7.3355478474       -1.4489843992       -2.3117556922
 H         -7.5677322685       -0.2316717100       -1.0645143100
 C         -5.7228405557       -0.0325265825       -2.1737733441
 H         -5.8749423918        0.0026565045       -3.2548969041
 H         -4.7529807087       -0.5054521888       -2.0023676338
 C         -5.6644878497        1.4121064973       -1.6771599675
 H         -6.5815914203        1.9338453639       -1.9593227927
 H         -4.8274098537        1.9112499100       -2.1717958389
 C         -5.4700775981        1.5511162124       -0.1615094315
 H         -5.2213096112        2.5921175787        0.0586021795
 H         -6.3908137365        1.2934072802        0.3612282902
 H         -7.1414095448       -2.5780249530       -0.2624756250
 H         -5.5124905593       -2.4849211525       -0.9336381102
 H         -6.5902068586       -0.6109790895        1.2174013693
 H         -5.6897023099       -2.1026270540        1.5406459667
 O         -3.4840243935       -1.3751390493        1.1016407526
 C         -2.1724072689       -0.9206031350        1.0763354423
 O         -1.3304741241       -1.7701706142        1.4241147218
 O         -2.7971014785        2.4643413494       -0.0560741886
 C         -0.5126218674        0.9184690855        0.6719250403
 C          0.3230225361        0.0863984690       -0.2680713653
 C         -0.0839654510       -0.0225564275       -1.5965477047
 C          0.6245809674       -0.7976090398       -2.4924158122
 C          1.7633971299       -1.4723733670       -2.0865434798
 C          2.1821145681       -1.3668983776       -0.7665276280
 C          1.4664941222       -0.5851453886        0.1323461463
 H          1.8060988526       -0.5384935865        1.1527845732
 N          3.3243259775       -2.0553946330       -0.3264997552
 S          4.4707551732       -1.2876115091        0.6159472986
 O          5.6278580249       -2.1529402763        0.5536407180
 O          3.9472656527       -1.0156598403        1.9294407731
 C          4.8038892529        0.2338913692       -0.2524368505
 C          5.6811539645        0.1994492232       -1.3191716122
 C          5.8976098286        1.3575692617       -2.0475432850
 C          5.2283437629        2.5228165275       -1.7046583650
 C          4.3512351659        2.5406121911       -0.6314063624
 C          4.1337972738        1.3862092930        0.1045040688
 H          3.4633525999        1.3628780234        0.9474831056
 H          3.8330806292        3.4479485690       -0.3646146316
 H          5.3927999942        3.4235003831       -2.2748378134
 H          6.5829590405        1.3482997522       -2.8797194965
 H          6.1878389039       -0.7246720622       -1.5457366976
 H          3.7684334847       -2.6189820199       -1.0366848123
 H          2.3151279175       -2.0860805786       -2.7823591059
 H          0.2917996684       -0.8771814097       -3.5163169987
 H         -0.9749288341        0.5033659795       -1.9116958816
 H         -0.5817431354        1.9371279579        0.2622298335
 C          0.0369693810        0.9982547407        2.0795801000
 C          1.0882972320        2.0104105722        2.4195940505
 C         -0.3101803714        2.1815070490        2.9305673226
 H         -0.5024194969        2.0216002759        3.9808898781
 H         -0.9264244365        2.9489614634        2.4853405057
 H          1.8641730565        1.7326056474        3.1180004125
 H          1.4142408165        2.6720910707        1.6310459801
 H          0.0804642268        0.0321804237        2.5706713881
