  62
        -98.94424783
 C         -1.7331617270       -1.0557499573        0.0324860597
 C         -1.9152340273        0.3469689603       -0.0384170091
 C         -3.1780490652        0.8574002242        0.5130621649
 C         -4.0536841644        0.0166060926        1.0909032007
 C         -5.3657877352        0.3946468188        1.7222167990
 C         -6.5244146634        0.5221961305        0.7234944038
 C         -6.4731869535        1.7553058445       -0.1796013162
 H         -7.4456596832        1.8332503249       -0.6699034887
 H         -6.3461705610        2.6481710254        0.4335260407
 C         -5.3800895438        1.7070256913       -1.2562839556
 H         -5.0332988351        0.6781984228       -1.3770181338
 H         -5.8003671600        2.0175418906       -2.2155004144
 C         -4.1754620654        2.6058352492       -0.9774388494
 H         -4.4890214214        3.6521360587       -0.9866901103
 H         -3.4492869107        2.4642926941       -1.7817557883
 C         -3.4694615462        2.3195166905        0.3542433923
 H         -2.5156919408        2.8529033807        0.3585973629
 H         -4.0740498619        2.6799477606        1.1862414873
 H         -6.5552453011       -0.3796450172        0.1076227068
 H         -7.4501196540        0.5604727482        1.3023384448
 H         -5.6088823477       -0.3992599250        2.4318409772
 H         -5.2533876855        1.3292496490        2.2726634028
 O         -3.8232165130       -1.3192689882        1.1844071913
 C         -2.6852498914       -1.8847977729        0.6369690947
 O         -2.6307197584       -3.1258563667        0.7503772618
 H          0.6583547383        0.4225135555        0.4837545732
 C          1.1691108204       -0.4820267713        0.7791562560
 C          0.6817179125       -1.7085906671        0.3517657809
 C          1.3618966794       -2.8594622711        0.7316270844
 C          2.5006795940       -2.7818920504        1.5153169130
 C          2.9826441066       -1.5561046413        1.9398752923
 C          2.3030155324       -0.4031155661        1.5728488119
 N          2.7988469691        0.8586315479        1.9828472041
 S          4.2075040670        1.3126215624        1.1922959902
 O          5.2809432089        0.4597312390        1.6350893981
 O          4.3682340018        2.7269331136        1.4431052538
 C          3.8548548526        1.0157285882       -0.5300413049
 C          4.1599642173       -0.2131785515       -1.0793236707
 C          3.7932138303       -0.4679504459       -2.3905825323
 C          3.1269230905        0.5026992855       -3.1224384377
 C          2.8252853228        1.7310720782       -2.5552483468
 C          3.1871722212        1.9904785411       -1.2436753738
 H          2.9708075128        2.9331622437       -0.7665098049
 H          2.3016679054        2.4819620999       -3.1250865891
 H          2.8394466194        0.3032358108       -4.1430600333
 H          4.0224549490       -1.4239551108       -2.8330190289
 H          4.6782270365       -0.9403023174       -0.4760270148
 H          2.1141928013        1.5930361351        1.8608032050
 H          3.8769094752       -1.4727104964        2.5360280990
 H          3.0185422779       -3.6852103233        1.7995832700
 H          0.9884646520       -3.8219835486        0.4142493459
 C         -0.5279180586       -1.7795207356       -0.5480608393
 H         -0.8287494816       -2.8329012656       -0.6232633193
 C         -0.1589743009       -1.2867060966       -1.9359751329
 C          0.5006453561       -2.2317917829       -2.8917295536
 C         -0.9178514848       -1.8044973557       -3.1187446463
 H         -1.1328448378       -1.1254256909       -3.9299095010
 H         -1.7047132403       -2.5213011150       -2.9315062895
 H          1.2633374082       -1.8470488956       -3.5495423267
 H          0.6754371480       -3.2425945663       -2.5561385055
 H          0.1498234406       -0.2496175985       -1.9544670188
 O         -1.0809176498        1.1583402943       -0.5231816639
