  62
        -98.93134206
 C          2.2726181759        1.1669402383        0.1815015062
 C          2.5525880872        0.0521029460        1.0030555791
 C          3.3691915715       -1.0228122213        0.4102868178
 C          3.7491390484       -0.9171091643       -0.8760022579
 C          4.5848094180       -1.8669515037       -1.6967182531
 C          4.2756344471       -3.3652642951       -1.5547651106
 C          5.3619002137       -4.1434913952       -0.8098676047
 H          5.3105348460       -5.1916228532       -1.1129446934
 H          6.3368413111       -3.7624645051       -1.1208543066
 C          5.2656089621       -4.0989500220        0.7142008036
 H          4.4150210112       -4.7012708282        1.0405771020
 H          6.1676492542       -4.5664844382        1.1158850584
 C          5.1273309794       -2.7008692240        1.3198948300
 H          5.4679090235       -2.7504883340        2.3563309351
 H          5.7786741523       -1.9954684770        0.8050734201
 C          3.6843423816       -2.1739821630        1.3264736502
 H          2.9878425048       -2.9918073831        1.1205939238
 H          3.4309246971       -1.8086323943        2.3265625733
 H          4.1928752554       -3.7829784931       -2.5594543375
 H          3.3104133367       -3.5008118532       -1.0695988082
 H          4.4320182020       -1.5532672086       -2.7318837089
 H          5.6379460195       -1.6831242606       -1.4692108107
 O          3.4172734710        0.1590041619       -1.6455632648
 C          2.6829087582        1.2226372149       -1.1499195453
 O          2.4681095685        2.1274003430       -1.9772539443
 H         -0.3495997239        0.3961165167        0.6183305386
 C         -0.6895327206        1.2729719238        0.0805964729
 C          0.1313477875        2.3946042218        0.0427119357
 C         -0.3153456125        3.5194338745       -0.6358139444
 C         -1.5444690339        3.5076660830       -1.2738615114
 C         -2.3508283965        2.3855073836       -1.2473488187
 C         -1.9186134229        1.2571651801       -0.5607096597
 N         -2.7225483992        0.0991665300       -0.5349514818
 S         -4.3578684425        0.3149649006       -0.1621683356
 O         -5.0338490250        0.8060637081       -1.3361994133
 O         -4.4930566049        1.1245890424        1.0287904002
 C         -4.8597932382       -1.3627559094        0.1646526417
 C         -5.1909038227       -2.1770770215       -0.9016270328
 C         -5.5616294187       -3.4887449060       -0.6518537426
 C         -5.5943349676       -3.9614808390        0.6517757270
 C         -5.2603548784       -3.1317696648        1.7115917221
 C         -4.8874341453       -1.8190687706        1.4687454413
 H         -4.6294579812       -1.1363597073        2.2626652547
 H         -5.2896096725       -3.5009660897        2.7241544289
 H         -5.8850811589       -4.9822229712        0.8438014591
 H         -5.8247817160       -4.1364050374       -1.4725104151
 H         -5.1603500148       -1.7634875648       -1.8960771521
 H         -2.3227769275       -0.6149499123        0.0595438680
 H         -3.3102011488        2.3699978953       -1.7384246044
 H         -1.8789065641        4.3873055405       -1.8031890534
 H          0.2988581682        4.4037229537       -0.6729451980
 C          1.4602669001        2.3151367738        0.7540998722
 H          1.2647062533        2.0392025422        1.8008431990
 C          2.2512793268        3.6047138408        0.7312880313
 C          1.9101916222        4.7066201644        1.6880262069
 C          3.1678653155        3.9140038923        1.8754840951
 H          4.1143035679        4.3882112271        1.6635319062
 H          3.2088361953        3.2019696716        2.6868707884
 H          1.9938288341        5.7282188108        1.3497129437
 H          1.0951219775        4.5357991242        2.3750231207
 H          2.5870853387        3.8741676437       -0.2632838641
 O          2.1374310170       -0.0452692984        2.1910678798
