  62
        -98.93957905
 C         -2.5086041721       -0.9426132197       -0.2030814368
 C         -3.7287005478       -1.0961396269        0.4974251383
 C         -4.8995374447       -0.4415588295       -0.1004684889
 C         -4.7543882098        0.2411511837       -1.2511759224
 C         -5.8501725375        1.0009868683       -1.9398949153
 C         -5.8940376449        2.4617253158       -1.4699304628
 C         -5.8781856515        2.6225152743        0.0501870329
 H         -4.9160557244        2.2762863456        0.4350003976
 H         -5.9427960211        3.6914333232        0.2648818175
 C         -7.0106467169        1.8853604791        0.7786969858
 H         -7.4369793282        2.5536828067        1.5298529983
 H         -7.8064134760        1.6402509394        0.0744194821
 C         -6.5732555207        0.6150622195        1.5104531716
 H         -5.7150315256        0.8375960770        2.1497568157
 H         -7.3921563368        0.2989682823        2.1621508794
 C         -6.2125248535       -0.5792427423        0.6178941214
 H         -6.1101889206       -1.4566847924        1.2632611607
 H         -7.0219655285       -0.7666575526       -0.0904099253
 H         -5.0246809739        2.9826464673       -1.8776752249
 H         -6.7925169016        2.9287274234       -1.8774354535
 H         -5.6598492988        0.9802274800       -3.0141824344
 H         -6.8032111742        0.5152555904       -1.7399402684
 O         -3.5682387797        0.3567705125       -1.9009412693
 C         -2.4137917690       -0.2194881233       -1.3919802738
 O         -1.3955425108       -0.0256027815       -2.0821857885
 O         -3.8322091799       -1.7476267836        1.5719427607
 C         -1.2527791216       -1.5791332594        0.3647771882
 C         -0.2314923231       -0.5096636927        0.6643446645
 C         -0.5962053601        0.5434559319        1.4996260300
 C          0.2992320889        1.5503623507        1.8021409421
 C          1.5806701745        1.5335974345        1.2783368666
 C          1.9589705051        0.4838239174        0.4540616156
 C          1.0573361886       -0.5320695330        0.1573967686
 H          1.3672213907       -1.3396149425       -0.4879207246
 N          3.2595775301        0.4602792481       -0.0967433192
 S          4.5519972675        0.4586500894        0.9933591619
 O          4.5197775541       -0.7419360019        1.8023077027
 O          4.5544171981        1.7050560760        1.7142594818
 C          5.9322775624        0.4058996051       -0.1318901334
 C          6.5819578269       -0.7911707916       -0.3632017008
 C          7.6408374431       -0.8169745410       -1.2574265865
 C          8.0270085989        0.3475537352       -1.9034217735
 C          7.3641048602        1.5417137000       -1.6610461134
 C          6.3057841574        1.5745740251       -0.7673713508
 H          5.7674471426        2.4802013741       -0.5420893037
 H          7.6688135785        2.4452457237       -2.1641533161
 H          8.8516030512        0.3249520555       -2.5983520652
 H          8.1595281695       -1.7431107113       -1.4464345032
 H          6.2534335917       -1.6703932122        0.1675823932
 H          3.3715069132       -0.3251614247       -0.7257352966
 H          2.2900063950        2.3101952650        1.5118067126
 H         -0.0016942983        2.3608060579        2.4493771129
 H         -1.5978126683        0.5604376370        1.9083571918
 H         -1.5605476999       -2.0297193229        1.3200920928
 C         -0.7512003958       -2.6764034361       -0.5494639209
 C          0.0857287222       -3.7907280843        0.0025026890
 C         -1.3296314740       -4.0518516281       -0.4145774171
 H         -1.5062072467       -4.6269982703       -1.3110131140
 H         -2.0719245543       -4.2045397610        0.3551124444
 H          0.8805868263       -4.1919786413       -0.6082534776
 H          0.3099839089       -3.7710400740        1.0584850030
 H         -0.5377235510       -2.3205499547       -1.5512598241
