  62
        -98.94571482
 C          0.9514389327        1.1615527854       -0.2618434308
 C          1.9764067582        1.2044482047        0.7202591957
 C          2.8722976421        0.0439977415        0.7848712834
 C          2.6806255943       -0.9774045621       -0.0691336434
 C          3.5642333635       -2.1863998917       -0.1698890421
 C          4.6913246956       -1.9669901965       -1.1891658317
 C          5.4503692812       -0.6536077574       -1.0009341617
 H          6.2400400070       -0.6231989501       -1.7549486369
 H          4.7764780666        0.1806711408       -1.2088415149
 C          6.0669418300       -0.4707688949        0.3929244370
 H          6.1275906612       -1.4338692429        0.9009185400
 H          7.0879210146       -0.1004299909        0.2784696625
 C          5.3280998956        0.5277639428        1.2857813796
 H          5.1857143070        1.4667810691        0.7449910502
 H          5.9602208557        0.7423719088        2.1516446001
 C          3.9650314323        0.0658541364        1.8164953097
 H          4.0677290864       -0.9127937337        2.2890603003
 H          3.6453409208        0.7842885801        2.5766759659
 H          5.3882508272       -2.8042298498       -1.1191253027
 H          4.2570193389       -1.9693480521       -2.1915917171
 H          3.9857957859       -2.4043710673        0.8093401252
 H          2.9578573251       -3.0322241173       -0.4952507260
 O          1.6805447194       -0.9940509194       -0.9831608841
 C          0.7840750414        0.0593150963       -1.1006009778
 O         -0.0796819705       -0.1257641057       -1.9798945334
 H         -1.9758268078        0.5926103351       -0.8013556330
 C         -2.1383820616        1.1693265271        0.0957085904
 C         -1.2151277284        2.1330656419        0.4793249786
 C         -1.4473684701        2.8613333922        1.6407762544
 C         -2.5800652192        2.6329017634        2.4010657905
 C         -3.4936178200        1.6663797964        2.0236089594
 C         -3.2676212544        0.9284334360        0.8654431548
 N         -4.1772737510       -0.0611978735        0.4763082844
 S         -3.7543976097       -1.3417439669       -0.4985449402
 O         -3.6609343179       -0.9164964773       -1.8715133178
 O         -4.7816435870       -2.3295725132       -0.2286800824
 C         -2.1937267947       -1.9841738957        0.0825997643
 C         -1.4025490967       -2.6564267824       -0.8256980722
 C         -0.2275928880       -3.2457420407       -0.3884241695
 C          0.1412859004       -3.1436244444        0.9432473770
 C         -0.6603974543       -2.4592220310        1.8424707656
 C         -1.8451833458       -1.8821192029        1.4143189073
 H         -2.4824715839       -1.3527626158        2.1038017396
 H         -0.3667812730       -2.3729213444        2.8764429993
 H          1.0601692161       -3.5952760818        1.2829998503
 H          0.3972559738       -3.7707326610       -1.0932665952
 H         -1.7104746189       -2.6900063740       -1.8582893967
 H         -4.8872052207       -0.3022582611        1.1510616839
 H         -4.3755027860        1.4792371616        2.6168083369
 H         -2.7498575094        3.2063955363        3.2994199149
 H         -0.7231817418        3.5993715151        1.9522554826
 C          0.0349197194        2.3723825670       -0.3325522376
 H          0.5954081213        3.1822669163        0.1547839771
 C         -0.3020341072        2.8105395748       -1.7431308154
 C         -0.7056842955        4.2337000941       -1.9818855462
 C          0.6259553355        3.7411917228       -2.4620400639
 H          0.7764432019        3.6004537267       -3.5219046348
 H          1.5104313747        4.0704507113       -1.9360036205
 H         -0.7220845474        4.8995209916       -1.1322185483
 H         -1.4746619238        4.4335325944       -2.7122943126
 H         -0.7898946672        2.0447225929       -2.3320548055
 O          2.1381711330        2.1786933552        1.5028208160
