  62
        -98.94013952
 C         -2.4268392636       -0.9622473976        0.0662040190
 C         -3.6776962308       -0.8711437502        0.7315684969
 C         -4.7029980076       -0.0501101433        0.0794935434
 C         -4.4204344699        0.5702966156       -1.0799360675
 C         -5.3654551128        1.4222348965       -1.8830663500
 C         -5.4482086143        2.8798068863       -1.4095728397
 C         -6.1938984955        3.0942592466       -0.0918549003
 H         -6.3656394197        4.1678572314        0.0078060397
 H         -7.1706215022        2.6123315044       -0.1456128878
 C         -5.4402902948        2.5980446246        1.1501222940
 H         -4.3858161731        2.4538986510        0.9031696895
 H         -5.4840153810        3.3602565874        1.9313600399
 C         -5.9895101186        1.3035373619        1.7498667559
 H         -7.0022305262        1.4727129119        2.1224617145
 H         -5.3605303369        1.0251494114        2.5992777525
 C         -6.0197674329        0.1187226566        0.7755079005
 H         -6.8202332197        0.2504496088        0.0476691905
 H         -6.2132102486       -0.7914429439        1.3486289701
 H         -5.9620376507        3.4465079558       -2.1895251276
 H         -4.4341433731        3.2769255478       -1.3235024079
 H         -4.9937864892        1.4146977230       -2.9100256489
 H         -6.3607519091        0.9768993606       -1.8704414544
 O         -3.2064297812        0.4725119959       -1.6799749506
 C         -2.1729827231       -0.2732315083       -1.1213093301
 O         -1.1202463893       -0.2330056684       -1.7834623896
 O         -3.9261009612       -1.4526833391        1.8210120619
 C         -1.3479559114       -1.7980190348        0.7329520178
 C         -0.0637428757       -1.0163806713        0.8343421459
 C          0.0544642800       -0.0272759902        1.8062037308
 C          1.2126561175        0.7184272536        1.9187500265
 C          2.2745336706        0.4995331564        1.0588671138
 C          2.1648918873       -0.4806370142        0.0822223215
 C          1.0061065925       -1.2393947098       -0.0177318180
 H          0.9259694078       -1.9877985040       -0.7910648151
 N          3.2300867934       -0.6879047917       -0.8100363065
 S          4.7693102583       -0.9101079063       -0.1878471918
 O          5.4866602648       -1.6551209755       -1.1997374100
 O          4.7259195324       -1.4995460973        1.1308826794
 C          5.4409435844        0.7363779345       -0.0960710436
 C          5.9445698840        1.2086146102        1.1000369875
 C          6.4726893649        2.4895185188        1.1459569655
 C          6.4886582043        3.2706740722        0.0006945067
 C          5.9806539852        2.7807763141       -1.1934182162
 C          5.4520464987        1.5009631514       -1.2461608426
 H          5.0494522003        1.0834410784       -2.1540440203
 H          5.9941212423        3.3914543278       -2.0818746903
 H          6.8991268850        4.2674029461        0.0385178221
 H          6.8677499955        2.8723892504        2.0732098682
 H          5.9057930385        0.5672692102        1.9661188353
 H          3.0263744699       -1.3524020039       -1.5418445834
 H          3.1787329389        1.0813235075        1.1351196708
 H          1.2895287149        1.4802956565        2.6796187620
 H         -0.7782936436        0.1519077348        2.4726292907
 H         -1.7264710581       -1.9597582809        1.7556924861
 C         -1.1535871436       -3.1801397576        0.1265183151
 C         -2.3304123481       -3.9678371078       -0.3641707586
 C         -1.3071512728       -3.4658481350       -1.3361152940
 H         -0.6361918490       -4.1829206132       -1.7873744595
 H         -1.5704000528       -2.6475664807       -1.9876295837
 H         -2.3679652263       -5.0259146836       -0.1533612879
 H         -3.2952001687       -3.4822892036       -0.3436565937
 H         -0.3828988239       -3.7396262821        0.6495701975
