  62
        -98.94411337
 C         -1.4441017443       -1.3045065341        0.7038027933
 C         -2.4610528854       -1.1971886200       -0.2759888512
 C         -3.3559600329       -0.0385464472       -0.1371125537
 C         -3.1345460514        0.8747333266        0.8248284833
 C         -3.9738399629        2.0930248976        1.1027603001
 C         -3.6738451425        3.2985744847        0.2009341659
 C         -4.1562167521        3.1720848064       -1.2448377546
 H         -5.2092161730        2.8889240291       -1.2533518302
 H         -4.0831146738        4.1644953055       -1.6941883875
 C         -3.3491075859        2.1848511203       -2.0990990048
 H         -2.3963738505        1.9721785632       -1.6095565760
 H         -3.1164662206        2.6412869216       -3.0638712544
 C         -4.0565638931        0.8601323773       -2.3797687543
 H         -3.3771839526        0.2218565901       -2.9503445450
 H         -4.9433072108        1.0395170856       -2.9919549054
 C         -4.4807893086        0.0956411871       -1.1199298962
 H         -5.3334298302        0.5880276014       -0.6522159387
 H         -4.7801244190       -0.9120936719       -1.4187194009
 H         -4.1656496397        4.1658507674        0.6475730667
 H         -2.5984937861        3.4884750269        0.2073810589
 H         -5.0297257670        1.8328717867        1.0183157651
 H         -3.7711543368        2.3782228835        2.1373502475
 O         -2.1013289055        0.7721740986        1.7025185425
 C         -1.2406661220       -0.3093188357        1.6654201275
 O         -0.3453838732       -0.2816729318        2.5331213707
 O         -2.6435052804       -2.0149916304       -1.2146516662
 C         -0.4555483453       -2.4611422402        0.7503870741
 C          0.6700033472       -2.1524922945       -0.2055773676
 C          0.5469780180       -2.3289793843       -1.5793427216
 C          1.5800302656       -1.9690884464       -2.4269570780
 C          2.7510847990       -1.4251145185       -1.9270519102
 C          2.8762254741       -1.2345480729       -0.5579645846
 C          1.8430810316       -1.6012642210        0.2922762369
 H          1.9353710458       -1.4300263106        1.3567607791
 N          4.0564853138       -0.6440246509       -0.0463811563
 S          4.2248462771        0.9899756135       -0.3780211653
 O          4.2954060060        1.1644828882       -1.8057072042
 O          5.3720533750        1.4301097739        0.3817233675
 C          2.7396715515        1.7408102622        0.2625182207
 C          2.7553982059        2.2830945878        1.5317841396
 C          1.5824258831        2.8008116797        2.0552859671
 C          0.4157415020        2.7560702127        1.3089757773
 C          0.4164845661        2.2018557352        0.0392884403
 C          1.5861381515        1.6866261039       -0.4935014104
 H          1.6175615688        1.2494888787       -1.4787472848
 H         -0.4949398574        2.1547736809       -0.5371061491
 H         -0.5021476032        3.1406775565        1.7253542218
 H          1.5756626965        3.2263464637        3.0458228146
 H          3.6841163670        2.2963417036        2.0798804254
 H          4.1602350583       -0.7794284849        0.9504051919
 H          3.5562508634       -1.1207874485       -2.5757405763
 H          1.4718383880       -2.1107606488       -3.4917542170
 H         -0.3744582657       -2.7222257207       -1.9791456260
 H         -0.0377966820       -2.4524524590        1.7661712285
 C         -1.0849384191       -3.8163627323        0.5070400139
 C         -0.3220886614       -5.0443400139        0.9004847103
 C         -1.5343628494       -4.6330454544        1.6795539800
 H         -2.4352125229       -5.2201725509        1.5826469259
 H         -1.3896967090       -4.2176215951        2.6665140168
 H         -0.3877880631       -5.9164499756        0.2683744275
 H          0.6458891875       -4.9064101818        1.3587192540
 H         -1.6913428543       -3.8643812396       -0.3866926585
