  62
        -98.94320303
 C          1.4515853933        1.5306660875        0.1728024247
 C          2.4459505086        1.0014773545        1.0339060909
 C          3.2474740727       -0.1021849551        0.4948992037
 C          2.9928587170       -0.5688520863       -0.7411551027
 C          3.7781264867       -1.6312335932       -1.4627926451
 C          3.3698281409       -3.0713181183       -1.1269626395
 C          3.7553199376       -3.5499955134        0.2726738612
 H          3.5909405710       -4.6290611312        0.3005214625
 H          4.8202476342       -3.3808609185        0.4352120852
 C          2.9496947514       -2.8963505653        1.4043172751
 H          2.0561597055       -2.4230112504        0.9900459381
 H          2.6110645679       -3.6642604220        2.1035345710
 C          3.7294490166       -1.8593020163        2.2128993651
 H          4.5537706692       -2.3473903243        2.7378320857
 H          3.0597744054       -1.4325477259        2.9643187568
 C          4.2989080659       -0.7061146314        1.3759075778
 H          4.6506696196        0.0718900930        2.0581116574
 H          5.1423557433       -1.0550738024        0.7801041009
 H          2.2908104700       -3.1641520649       -1.2553132695
 H          3.8530565726       -3.7247341631       -1.8570105845
 H          3.6112228441       -1.4672622212       -2.5295855974
 H          4.8405440329       -1.4967564208       -1.2554214244
 O          1.9848971025       -0.0816995358       -1.5093790077
 C          1.1771594707        0.9635163958       -1.0736362109
 O          0.2832861554        1.2750284806       -1.8786594788
 O          2.6594517949        1.4385166589        2.1969816931
 C          0.6303659246        2.7013130065        0.6835501189
 C         -0.8379410775        2.4361661660        0.4720566960
 C         -1.6513119628        3.2049536827       -0.3487511216
 C         -2.9868199848        2.8802294288       -0.5148018602
 C         -3.5404309258        1.7924372776        0.1346556147
 C         -2.7342450791        1.0157669779        0.9573385303
 C         -1.3977984043        1.3421660852        1.1218788291
 H         -0.7692616495        0.7314948065        1.7592951602
 N         -3.2883983315       -0.1004728852        1.6220239637
 S         -3.8835620464       -1.3342373185        0.6576180147
 O         -5.0209999375       -0.8460941416       -0.0784243460
 O         -4.1296055805       -2.4374667985        1.5586065561
 C         -2.5528497953       -1.7414152546       -0.4559662137
 C         -2.3928342838       -1.0120976809       -1.6168258572
 C         -1.3235538210       -1.3039266172       -2.4479241577
 C         -0.4394205371       -2.3147829437       -2.1055456938
 C         -0.6139617012       -3.0383504827       -0.9354956929
 C         -1.6764008795       -2.7457091519       -0.0965987561
 H         -1.8504089131       -3.2867312428        0.8200040147
 H          0.0714123378       -3.8289089715       -0.6712268774
 H          0.3923143459       -2.5331525662       -2.7573644439
 H         -1.1737976439       -0.7298453024       -3.3473077676
 H         -3.0993039405       -0.2338274923       -1.8541789117
 H         -2.6651808296       -0.4969633175        2.3118113152
 H         -4.5748237765        1.5188112842        0.0033874223
 H         -3.6058185450        3.4827066926       -1.1623289938
 H         -1.2340979371        4.0442718023       -0.8799940834
 H          0.8182406318        2.7108649788        1.7705397552
 C          1.0806341440        4.0567147243        0.1594774963
 C          2.5148316531        4.3057201787       -0.1974814326
 C          1.4691168971        4.2834289363       -1.2696377462
 H          1.1921348792        5.2197101893       -1.7319902820
 H          1.4334358459        3.4390877717       -1.9395161517
 H          2.9552562658        5.2529137564        0.0756429001
 H          3.1986192714        3.4717388446       -0.1323528103
 H          0.5630806823        4.8714002455        0.6570627869
