  62
        -98.94030045
 C         -1.0766354398       -1.4857056961        0.5912049448
 C         -2.0715024839       -1.3194753868       -0.3997175289
 C         -3.1354499436       -0.3295580691       -0.1214392759
 C         -3.1000054169        0.3602532687        1.0327146444
 C         -4.0595632290        1.4097074426        1.5318507451
 C         -3.9118118429        2.7671960495        0.8256299576
 C         -3.7389532732        2.6894125822       -0.6885911315
 H         -3.5320838266        3.6998246486       -1.0505906352
 H         -2.8704774436        2.0710822046       -0.9213404277
 C         -4.9531430532        2.1636741243       -1.4498582851
 H         -5.8162259900        2.7969879789       -1.2329402711
 H         -4.7335566158        2.2559413737       -2.5164529710
 C         -5.3327345980        0.7084078879       -1.1694867447
 H         -5.8581744258        0.6124969854       -0.2230915533
 H         -6.0372728657        0.3998278059       -1.9472735341
 C         -4.1644612974       -0.2706192631       -1.2246411421
 H         -4.5655368382       -1.2883719074       -1.3003242523
 H         -3.6063638964       -0.1138357104       -2.1545823612
 H         -3.0367249402        3.2743209113        1.2395031224
 H         -4.7884724695        3.3724104635        1.0629646336
 H         -5.0789542081        1.0431022730        1.4489836579
 H         -3.8447702123        1.5455594619        2.5945071880
 O         -2.1018975022        0.1852393078        1.9490462413
 C         -1.0864118607       -0.7301426167        1.7648300014
 O         -0.2649558981       -0.7805538421        2.7040877769
 H          2.2445183634       -1.0265283949        0.9111290035
 C          2.1241868011       -1.2320349171       -0.1422904665
 C          1.0505468502       -1.9987972899       -0.5775360051
 C          0.9253511587       -2.2625872356       -1.9368505671
 C          1.8552939674       -1.7664065314       -2.8325378659
 C          2.9184502122       -0.9958840726       -2.3970576417
 C          3.0529381466       -0.7255622690       -1.0401169830
 N          4.1310337733        0.0410353146       -0.5685709294
 S          3.8892565380        1.1704119556        0.6400043732
 O          5.0232088537        2.0621278496        0.5222735729
 O          3.7335308586        0.5137933945        1.9119331946
 C          2.3996532416        2.0287687471        0.1693730834
 C          2.4746177553        2.9005353530       -0.9004092049
 C          1.3265753267        3.5505622504       -1.3204530931
 C          0.1248498761        3.3158383299       -0.6690410587
 C          0.0683152476        2.4418845526        0.4043601809
 C          1.2138272944        1.7881545648        0.8307957063
 H          1.1914926509        1.1019979422        1.6634313801
 H         -0.8616933277        2.2547077005        0.9169427839
 H         -0.7727854886        3.8171859165       -0.9950921444
 H          1.3689362814        4.2353251770       -2.1519772217
 H          3.4302289508        3.0676320565       -1.3703708760
 H          4.7336197714        0.4042213978       -1.2928579785
 H          3.6428258276       -0.6101135401       -3.0979629457
 H          1.7476168955       -1.9783848372       -3.8853976944
 H          0.0845761360       -2.8357634454       -2.2902862695
 C          0.0534306886       -2.4933840388        0.4430803364
 H          0.5606732901       -2.5109762469        1.4177015719
 C         -0.4586177709       -3.8881063338        0.1434753333
 C          0.4561218240       -5.0569423236        0.3454764145
 C         -0.6974942875       -4.8376774632        1.2766993329
 H         -1.5429136534       -5.5069354425        1.2190549684
 H         -0.4874820000       -4.4867940309        2.2770852643
 H          0.4052687132       -5.8792877622       -0.3513868689
 H          1.4503450640       -4.8531838049        0.7145382243
 H         -1.1535236443       -3.9260258799       -0.6849083341
 O         -2.1034806157       -1.9671177074       -1.4777481582
