  62
        -98.94617932
 C          1.8153754052        1.0255502972       -0.2798523401
 C          3.1719653195        1.2988758822        0.0166744048
 C          4.1389809376        0.2758794292       -0.4026628787
 C          3.6974252928       -0.8258217428       -1.0371487868
 C          4.5665728282       -1.9694845934       -1.4718958140
 C          4.6622790641       -3.0431570790       -0.3787691260
 C          5.0018239847       -2.4881112682        1.0044822616
 H          4.1744420410       -1.8648804572        1.3512937416
 H          5.0725728211       -3.3373722315        1.6874740583
 C          6.3040167649       -1.6773024317        1.0611201910
 H          6.8699933621       -1.9842641816        1.9431922504
 H          6.9186116360       -1.9012498630        0.1884730942
 C          6.1049368909       -0.1640244907        1.1648617403
 H          7.0676477345        0.2893402411        1.4156674065
 H          5.4158572006        0.0599886141        1.9831469412
 C          5.5895782994        0.5298150861       -0.1024652785
 H          5.6789101538        1.6093876583        0.0505334640
 H          6.2139036480        0.2517601768       -0.9540516952
 H          5.4189023307       -3.7714183631       -0.6762896139
 H          3.7011586333       -3.5581666256       -0.3142000022
 H          5.5586221358       -1.5931138479       -1.7138254400
 H          4.1283166358       -2.4131513868       -2.3674014493
 O          2.3874126696       -1.0468590671       -1.3161336804
 C          1.4129115693       -0.1332854192       -0.9422284017
 O          0.2532418746       -0.4644488819       -1.2510961644
 O          3.5537913076        2.3448876146        0.6073721073
 C          0.7570069932        2.0378552024        0.1183539147
 C         -0.2876836139        1.3870127258        0.9897435395
 C          0.1238766737        0.6805202217        2.1181500981
 C         -0.7963881302        0.0664258051        2.9441866408
 C         -2.1495626768        0.1368203738        2.6592958058
 C         -2.5720577600        0.8451559120        1.5421307316
 C         -1.6441881735        1.4747426016        0.7216250433
 H         -2.0041914437        2.0128298027       -0.1385285363
 N         -3.9420878184        0.9606511786        1.2405291168
 S         -4.5151020722        0.4893719087       -0.2605800899
 O         -3.8748329663        1.2569943350       -1.2958814064
 O         -5.9521042528        0.6256377879       -0.1597751887
 C         -4.0946944058       -1.2399761229       -0.3849818696
 C         -2.7972004450       -1.6075767667       -0.6798007119
 C         -2.4806564088       -2.9575676516       -0.7078739937
 C         -3.4537879861       -3.9085084497       -0.4441034691
 C         -4.7525083388       -3.5206254920       -0.1494378655
 C         -5.0763642923       -2.1745797383       -0.1140972982
 H         -6.0724237613       -1.8261487963        0.1068872397
 H         -5.5094911819       -4.2610131419        0.0536848328
 H         -3.1978848560       -4.9561665286       -0.4695308445
 H         -1.4666551182       -3.2450889798       -0.9370324060
 H         -2.0452766445       -0.8621609866       -0.8860568465
 H         -4.5481362878        0.5867869066        1.9577830101
 H         -2.8712797757       -0.3480262196        3.2991477030
 H         -0.4598354664       -0.4778564581        3.8136494135
 H          1.1816508353        0.6198627474        2.3361346616
 H          1.2853325315        2.7928986931        0.7197406369
 C          0.1872572943        2.7131007502       -1.1113510526
 C         -0.3590847640        4.1055376654       -1.0216011415
 C          0.9378212145        3.8531462792       -1.7286101423
 H          0.9641684593        3.9307788012       -2.8052490825
 H          1.8533771504        4.1622264170       -1.2455431893
 H         -1.2286475361        4.3540339040       -1.6116453914
 H         -0.3254965664        4.5944969593       -0.0596437234
 H         -0.3041678658        2.0182116405       -1.7843566010
