  62
        -98.94688164
 C          0.7830304604        1.6638958827       -0.7402212097
 C          2.0005428725        1.7875828623       -0.0228940139
 C          3.0034864520        0.7389813523       -0.2405457906
 C          2.7280685932       -0.2632481263       -1.0937284613
 C          3.6481167627       -1.4099137624       -1.3993998124
 C          3.3887456346       -2.6118101578       -0.4812352290
 C          3.2928585735       -2.2537059218        1.0019305396
 H          2.3976411785       -1.6490253647        1.1720320822
 H          3.1446662886       -3.1871981343        1.5509986171
 C          4.5249718598       -1.5267053742        1.5592019211
 H          4.7763795816       -1.9646549181        2.5276285292
 H          5.3787242643       -1.6870336242        0.8990568235
 C          4.3354425404       -0.0258408224        1.7875878279
 H          5.1661449766        0.3315762379        2.4024788669
 H          3.4133408497        0.1417941869        2.3509820301
 C          4.2924814780        0.8419839728        0.5234748955
 H          4.3748940025        1.8878670092        0.8336037474
 H          5.1449678164        0.6041914839       -0.1163649954
 H          2.4481768536       -3.0833747912       -0.7760393055
 H          4.1904706659       -3.3383081171       -0.6298805426
 H          3.4840189217       -1.7137140217       -2.4349181606
 H          4.6781506730       -1.0756140713       -1.2891536329
 O          1.5556038192       -0.3521067642       -1.7660673058
 C          0.5406659170        0.5799830986       -1.5845906200
 O         -0.4882393657        0.3170751127       -2.2368307022
 O          2.2412614824        2.7483436280        0.7588685377
 C         -0.2706859413        2.7212712184       -0.4588179959
 C         -1.1389039386        2.2899629219        0.7008905001
 C         -1.4716169999        3.1703701614        1.7237180521
 C         -2.2270359225        2.7422258549        2.8010778557
 C         -2.6318901857        1.4226332574        2.8980943415
 C         -2.3043794066        0.5365181444        1.8789754733
 C         -1.5976773114        0.9838587979        0.7739463143
 H         -1.3696387666        0.2898385736       -0.0186332968
 N         -2.6610857889       -0.8191990900        1.9365597701
 S         -1.5501186453       -1.9511515171        1.3857805311
 O         -1.8890269634       -3.1643251357        2.1048235853
 O         -0.1909393050       -1.4893430615        1.5499162576
 C         -1.9412520001       -2.1978339735       -0.3308361984
 C         -0.9293588662       -2.5852227978       -1.1841629711
 C         -1.2286190868       -2.8337457466       -2.5131783616
 C         -2.5314639711       -2.6929769742       -2.9620402041
 C         -3.5383351524       -2.3063752946       -2.0912148421
 C         -3.2454713248       -2.0586256928       -0.7602298166
 H         -4.0013352173       -1.7475076157       -0.0582456437
 H         -4.5497513371       -2.1913056941       -2.4469834838
 H         -2.7608863978       -2.8787096627       -3.9995983860
 H         -0.4419552455       -3.1210155646       -3.1923604749
 H          0.0751072525       -2.6605725859       -0.7971968767
 H         -3.0983100136       -1.1128518592        2.7982823339
 H         -3.1864862120        1.0773560058        3.7573400118
 H         -2.4800014170        3.4355868999        3.5887293608
 H         -1.1167855941        4.1893167225        1.6826448762
 H          0.2862913459        3.6135911039       -0.1398412069
 C         -1.1278813566        3.0912701112       -1.6526641521
 C         -1.7568837617        4.4499214756       -1.7098938556
 C         -0.6258841994        4.1079518384       -2.6317936186
 H         -0.8355163263        3.9576524149       -3.6798374010
 H          0.3407462297        4.5507186640       -2.4397675492
 H         -2.7490862597        4.5383601403       -2.1244082473
 H         -1.5571026082        5.1322433101       -0.8978882058
 H         -1.6911389556        2.2563550473       -2.0479777260
