  62
        -98.94940120
 C         -1.3469940685       -1.6015812501        0.2687508003
 C         -1.6166023490       -0.6177004595        1.2501490095
 C         -2.7991368793        0.2199657699        1.0205092887
 C         -3.5478097791        0.0107964387       -0.0774161613
 C         -4.7640092794        0.8065540079       -0.4513912521
 C         -4.4079712897        1.9826711173       -1.3702820729
 C         -3.2469353301        2.8406747182       -0.8662204934
 H         -2.3179949299        2.2657686586       -0.9040388128
 H         -3.1282732704        3.6701517577       -1.5675894140
 C         -3.4319800306        3.3976641492        0.5520340861
 H         -3.1217431910        4.4447576994        0.5552058254
 H         -4.4866081606        3.3685673190        0.8306941860
 C         -2.5982339605        2.6857722204        1.6192830168
 H         -1.5665655604        2.6020147106        1.2654623070
 H         -2.5894994409        3.3089959311        2.5179688463
 C         -3.0939177600        1.2924927305        2.0300843078
 H         -2.5618903400        1.0034460115        2.9413241781
 H         -4.1621051800        1.3330396003        2.2543853776
 H         -5.2960785399        2.6069751669       -1.4881373936
 H         -4.1375747594        1.5869460667       -2.3520884026
 H         -5.4562237890        0.1460532472       -0.9769281417
 H         -5.2434368297        1.1725740784        0.4544833676
 O         -3.2587078985       -0.9416753419       -1.0002924105
 C         -2.1296116982       -1.7398561413       -0.8769357797
 O         -1.9482700577       -2.5197062220       -1.8314535390
 H          0.3923482010        0.0218217201       -0.4377957906
 C          1.0499376313       -0.6864317400       -0.9154711900
 C          0.9232140219       -2.0382126999       -0.6288216889
 C          1.7618562923       -2.9321520900       -1.2826101081
 C          2.6881877523       -2.4726317903       -2.2037429483
 C          2.8181629718       -1.1223124505       -2.4752054194
 C          1.9865801113       -0.2196701803       -1.8219046502
 N          2.0696463808        1.1604457795       -2.0561915912
 S          1.7982720901        2.2306542404       -0.7978047721
 O          0.3950710700        2.2922146200       -0.4782652724
 O          2.3938371997        3.4683296303       -1.2558618930
 C          2.7516093602        1.5775637418        0.5611681285
 C          4.1269027201        1.6730155823        0.4568368687
 C          4.9185681102        1.1356303134        1.4571877392
 C          4.3242305303        0.5071201140        2.5415455096
 C          2.9444443003        0.4248415635        2.6345731595
 C          2.1451379902        0.9639163124        1.6373982189
 H          1.0694491603        0.9007309920        1.6959428188
 H          2.4727999204       -0.0604517560        3.4742926598
 H          4.9384270403        0.0817050349        3.3194568601
 H          5.9921956902        1.2047128438        1.3885589094
 H          4.5487145901        2.1804799418       -0.3955706916
 H          2.8358798607        1.4529304194       -2.6438195013
 H          3.5449457817       -0.7691826308       -3.1904201495
 H          3.3264104427       -3.1782434905       -2.7135170377
 H          1.6849282328       -3.9873915199       -1.0779554573
 C         -0.0939549881       -2.4456506695        0.4111972712
 H          0.3214760716       -2.1800926085        1.3960658411
 C         -0.4124728175       -3.9251223496        0.4029427223
 C          0.4341370728       -4.8826211587        1.1860689632
 C         -0.9516207875       -4.5548267489        1.6515160327
 H         -1.7219949171       -5.3053704293        1.5583257732
 H         -1.0650512079       -3.9199075082        2.5182123322
 H          0.6155390332       -5.8645488989        0.7757468440
 H          1.2635030225       -4.4760560779        1.7448316630
 H         -0.8252473072       -4.2576681105       -0.5422951675
 O         -0.8955101893       -0.4471196984        2.2711850395
