  62
        -98.94106520
 C         -0.9961671224       -1.4630106261       -0.0366528933
 C         -1.8268527862       -0.9694438733        0.9962777685
 C         -2.6231141924        0.2244856694        0.6742952282
 C         -2.5140585435        0.7738787342       -0.5490363947
 C         -3.3078594139        1.9462519523       -1.0517989849
 C         -4.7368172065        1.4980907582       -1.4196269812
 C         -5.8329445522        2.1084709666       -0.5464201404
 H         -6.7571373615        1.5647472206       -0.7530952984
 H         -5.9877030009        3.1475428991       -0.8443553034
 C         -5.5706344944        2.0889833125        0.9625837948
 H         -6.5224141242        2.3009266941        1.4543652770
 H         -4.8951090646        2.9031722787        1.2298372147
 C         -5.0059403872        0.7795151265        1.5284551492
 H         -5.2637307791       -0.0617652218        0.8846795631
 H         -5.4781621173        0.5958187758        2.4957361911
 C         -3.4845417106        0.7880239214        1.7700289468
 H         -3.2659121301        0.1668272534        2.6441513225
 H         -3.1541782956        1.8043163362        2.0057818607
 H         -4.7817530079        0.4091694712       -1.3528249872
 H         -4.9437255374        1.7585240963       -2.4585793944
 H         -3.3323124056        2.7240708612       -0.2915230399
 H         -2.7944824287        2.3362693568       -1.9307786956
 O         -1.7037160508        0.2705126979       -1.5156714234
 C         -0.9100359090       -0.8463059234       -1.2834745276
 O         -0.1950784501       -1.1754098503       -2.2467250381
 H          1.0841136852       -0.6492828928        1.4587984459
 C          1.7775109906       -1.2003929767        0.8395107864
 C          1.3301064102       -2.3003870858        0.1159463394
 C          2.2441210279       -3.0035084626       -0.6575426555
 C          3.5680565954       -2.6034380380       -0.7129894695
 C          4.0057321514       -1.5013285193       -0.0029840902
 C          3.1015329237       -0.7961836058        0.7843090745
 N          3.5268177318        0.3092602365        1.5437009965
 S          2.6527441709        1.7326318309        1.5177987833
 O          3.5460251837        2.7091261820        2.1031822049
 O          1.3831078010        1.5575484900        2.1752676703
 C          2.4196959076        2.0893574318       -0.2114523512
 C          3.4816086118        2.6029421516       -0.9307149682
 C          3.3249168606        2.8219418497       -2.2892126723
 C          2.1192515792        2.5163347579       -2.9033061363
 C          1.0623339576        2.0049962568       -2.1669215887
 C          1.2132148468        1.7886327184       -0.8067690002
 H          0.4150710859        1.3905216228       -0.1992340601
 H          0.1276993317        1.7502508338       -2.6408332972
 H          1.9989165393        2.6774061364       -3.9629498766
 H          4.1415371905        3.2245274018       -2.8665650991
 H          4.3981449589        2.8358989193       -0.4132350804
 H          4.5144124076        0.5060933405        1.4627073672
 H          5.0381442407       -1.1898828687       -0.0479478957
 H          4.2672314705       -3.1557242668       -1.3220231934
 H          1.9203121390       -3.8631696068       -1.2201717357
 C         -0.1267875286       -2.6772732197        0.2327783017
 H         -0.3212886324       -2.9470656923        1.2818056246
 C         -0.5351542824       -3.8360861088       -0.6519437115
 C         -0.2989261627       -5.2459846772       -0.2019714064
 C         -1.6909851036       -4.6926100812       -0.2330488108
 H         -2.3722291417       -5.0469648917       -0.9920404911
 H         -2.1701170469       -4.4545661905        0.7056819746
 H          0.1664025698       -5.3912227419        0.7612230711
 H         -0.0266101166       -5.9850285890       -0.9401676740
 H         -0.4386922729       -3.6097593354       -1.7076496964
 O         -1.8977752922       -1.5030319720        2.1373325954
