  62
        -98.94173456
 C          1.2712544802        1.6973691254        0.0107831634
 C          2.2008163860        1.2104624214        0.9561724369
 C          3.0334436185        0.0712663498        0.5344457728
 C          2.8607894432       -0.4545583588       -0.6932335466
 C          3.6014048676       -1.5670382653       -1.4053311308
 C          4.4553009796       -2.5644600126       -0.6259026424
 C          3.6797869360       -3.4667189027        0.3330259240
 H          3.0654149453       -4.1550290650       -0.2526762318
 H          4.4007486985       -4.0655865285        0.8939139143
 C          2.7617654842       -2.7470688061        1.3181951789
 H          2.2845634595       -3.5048390649        1.9459747882
 H          1.9663259524       -2.2333880406        0.7737033634
 C          3.4561135953       -1.7481016792        2.2427679895
 H          2.7298002605       -1.4412038767        3.0007043991
 H          4.2855405861       -2.2371867628        2.7572655081
 C          3.9829118157       -0.4707109988        1.5634952277
 H          4.0813597020        0.3028892089        2.3307428062
 H          4.9686690457       -0.6284544727        1.1325303468
 H          4.9353137223       -3.2081614445       -1.3680778146
 H          5.2517200479       -2.0489072351       -0.0973541772
 H          4.2419697053       -1.0724318547       -2.1439430829
 H          2.8416241640       -2.1131293038       -1.9709110880
 O          1.9360326801        0.0403258078       -1.5655810446
 C          1.1116636148        1.1045848704       -1.2410686689
 O          0.3022558554        1.4188688871       -2.1310350529
 O          2.3320901870        1.7053776464        2.1095775855
 C          0.3614335333        2.8515913673        0.3910040376
 C         -1.0703926084        2.3770633231        0.3653380180
 C         -2.0927885322        3.0344407183       -0.3043670690
 C         -3.3744252548        2.5087589673       -0.3175999658
 C         -3.6659193611        1.3263962855        0.3371580256
 C         -2.6512812685        0.6671669089        1.0201568278
 C         -1.3714076112        1.1958216229        1.0338415898
 H         -0.5826838263        0.6771539399        1.5654177005
 N         -2.9315063123       -0.5461246001        1.6877003078
 S         -3.3900724779       -1.8347148844        0.7197509907
 O         -4.6691911274       -1.5371945099        0.1282211325
 O         -3.3357255354       -2.9967327576        1.5774710165
 C         -2.1421225896       -1.9519341986       -0.5483185185
 C         -1.0728334916       -2.8028863288       -0.3531644167
 C         -0.0918793660       -2.8787944952       -1.3283310908
 C         -0.1889889806       -2.0951594855       -2.4677083200
 C         -1.2620490922       -1.2357327195       -2.6426582776
 C         -2.2511627480       -1.1625384859       -1.6756694789
 H         -3.1028690756       -0.5108839306       -1.7824952383
 H         -1.3221778470       -0.6121039318       -3.5192994018
 H          0.5764312477       -2.1456509743       -3.2262646399
 H          0.7435381128       -3.5478764601       -1.1942529897
 H         -1.0365526177       -3.3989506016        0.5449852832
 H         -2.1767299126       -0.8442651654        2.2903422439
 H         -4.6529862653        0.8935498963        0.3171959809
 H         -4.1576877360        3.0270657745       -0.8497101734
 H         -1.8861510148        3.9538096152       -0.8268091857
 H          0.6222975750        3.1028196897        1.4298296270
 C          0.6234678990        4.0582555888       -0.4836619736
 C          0.3415931278        5.4370738114        0.0318113858
 C          1.7568552061        4.9734685375       -0.1333753247
 H          2.3485511107        5.3917189151       -0.9337225246
 H          2.3273325422        4.7404777274        0.7540121154
 H         -0.0369820306        6.1782202324       -0.6557545717
 H         -0.0483848638        5.5261922817        1.0345041251
 H          0.4502715830        3.8570423080       -1.5346048882
