  62
        -98.94213258
 C         -2.2535183799       -0.8168060197        0.1226226405
 C         -1.6358852603       -0.0272137704       -0.8747627502
 C         -2.0006212507        1.4001391395       -0.9048318514
 C         -2.8102123406        1.8903300301        0.0493813082
 C         -3.3764670410        3.2808431901        0.2100613871
 C         -2.5012841914        4.4754726700       -0.1770787141
 C         -1.0221074513        4.3438341307        0.2133015558
 H         -0.7211139414        5.2276754613        0.7793362950
 H         -0.8751036310        3.4773226014        0.8620237766
 C         -0.0948948314        4.2124025999       -0.9959531542
 H          0.9184942485        4.4837382305       -0.6897505046
 H         -0.4093722717        4.9175419292       -1.7690809648
 C         -0.0265475911        2.8046381394       -1.5820466230
 H          0.4198618392        2.1373468602       -0.8409448525
 H          0.6406876287        2.8262900089       -2.4472897931
 C         -1.3771328210        2.2049321987       -2.0102549822
 H         -2.0523122613        2.9757674182       -2.3751110628
 H         -1.1892074410        1.4971239080       -2.8222937616
 H         -2.9321424415        5.3488653503        0.3163103852
 H         -2.5754892716        4.6521997590       -1.2489208842
 H         -3.6443028209        3.3558168910        1.2675050071
 H         -4.3111546511        3.3252802994       -0.3585081428
 O         -3.3042141203        1.1076346509        1.0540325590
 C         -3.0452021299       -0.2488541390        1.1161925102
 O         -3.5658883596       -0.8311027283        2.0924755008
 O         -0.8358515103       -0.4974192309       -1.7248431599
 C         -1.9809104595       -2.3111210795        0.1870169318
 C         -0.4929648594       -2.5275529990        0.3041832618
 C          0.2390462007       -3.3798925195       -0.5119590676
 C          1.6183534307       -3.4441880091       -0.4056448077
 C          2.2960627206       -2.6456217681        0.4980424615
 C          1.5681671805       -1.8136515676        1.3373592109
 C          0.1878811105       -1.7812720180        1.2586349410
 H         -0.3695372596       -1.1166570376        1.9082767205
 N          2.2731744204       -0.9169199666        2.1973609700
 S          2.2816104799        0.6295989828        1.5085759086
 O          3.0545378398        1.4574962338        2.4111704978
 O          0.9366829697        1.0983500022        1.2488684284
 C          3.1774923498        0.3603393517       -0.0015973213
 C          2.5023874597       -0.0123736195       -1.1473181209
 C          3.2363887596       -0.2655215703       -2.2962691907
 C          4.6173004696       -0.1466232099       -2.2803589710
 C          5.2784989096        0.2270483313       -1.1197078015
 C          4.5535714597        0.4801150321        0.0330467884
 H          5.0192049298        0.7753198230        0.9590285981
 H          6.3525797496        0.3189021916       -1.1092580417
 H          5.1806118895       -0.3468436606       -3.1782100110
 H          2.7161412795       -0.5587232012       -3.1937968804
 H          1.4266800397       -0.1038262698       -1.1401260806
 H          1.8457339805       -0.8403266259        3.1117190300
 H          3.3719664907       -2.6508668478        0.5607186713
 H          2.1733054208       -4.1039253395       -1.0542467472
 H         -0.2707184692       -3.9795643203       -1.2481346569
 H         -2.4622708593       -2.6700465089        1.1085240322
 C         -2.6059890995       -3.0093083408       -1.0022164875
 C         -3.0283266791       -4.4433909808       -0.9001126861
 C         -4.0616769394       -3.3595071711       -0.9532249769
 H         -4.6495367295       -3.2472699021       -1.8516770370
 H         -4.5992357893       -3.1156376805       -0.0481148571
 H         -2.9111844390       -5.0786204815       -1.7648971356
 H         -2.8706030288       -4.9454667899        0.0423375543
 H         -2.2090665197       -2.6558042915       -1.9466947478
