  62
        -98.94121504
 C         -1.4925322344       -1.5817189277       -0.2120218762
 C         -2.6540887905       -1.2630132580        0.5331416937
 C         -3.4907003555       -0.1537421924        0.0370149469
 C         -3.1104227789        0.4905582043       -1.0815577780
 C         -3.7747230760        1.6661478007       -1.7471967275
 C         -3.5171574446        2.9963603005       -1.0164840680
 C         -3.5605165096        2.9159995440        0.5077194169
 H         -2.8581149241        2.1531925230        0.8491646412
 H         -3.2174999917        3.8762075584        0.9019312572
 C         -4.9398250889        2.6412594444        1.1023828231
 H         -5.6156438961        3.4547053438        0.8279093031
 H         -4.8349482357        2.6499014735        2.1902997299
 C         -5.5911441636        1.3189864593        0.6961281554
 H         -5.9595824867        1.3655552227       -0.3250309245
 H         -6.4676472511        1.1779131224        1.3355768743
 C         -4.7122798119        0.0869086380        0.8901205430
 H         -4.3609272427        0.0594382070        1.9276827395
 H         -5.3372538432       -0.8071214817        0.7737933022
 H         -4.2480321387        3.7279033872       -1.3648181766
 H         -2.5251483374        3.3531514465       -1.3030278470
 H         -4.8396817532        1.4766094314       -1.8470545902
 H         -3.3570363808        1.7355303177       -2.7541946729
 O         -1.9819226804        0.1513663462       -1.7659612866
 C         -1.1472953595       -0.8761857000       -1.3634547987
 O         -0.1642534038       -1.0469810058       -2.1104215842
 O         -2.9846864248       -1.8801195038        1.5806215208
 C         -0.5934471569       -2.6900872576        0.3134890526
 C          0.6579979545       -2.0337679990        0.8404869734
 C          0.6840864902       -1.5458604648        2.1440583473
 C          1.7781673780       -0.8435251954        2.6149860802
 C          2.8577638902       -0.5880354024        1.7872083911
 C          2.8327000556       -1.0591720443        0.4814787185
 C          1.7529765599       -1.8002383289        0.0226763828
 H          1.7459581157       -2.1499767025       -0.9972180502
 N          3.8924575403       -0.7380611877       -0.3886523570
 S          4.3147698774        0.8834875206       -0.4382416314
 O          4.7790988923        1.1245624527       -1.7868397611
 O          5.2745629833        1.1542744248        0.6046586925
 C          2.8156012096        1.7999324703       -0.1127901648
 C          1.7015214339        1.5586392387       -0.8917428420
 C          0.5367547165        2.2607772029       -0.6278125522
 C          0.5027894793        3.1885389261        0.4010598607
 C          1.6324272621        3.4250783546        1.1689593353
 C          2.7995623063        2.7240359636        0.9127029129
 H          3.6977474486        2.8696904661        1.4906696877
 H          1.6047511120        4.1482566703        1.9680000425
 H         -0.4101923408        3.7262650061        0.6042009605
 H         -0.3392806987        2.0625350154       -1.2251226982
 H          1.7299494676        0.8243605609       -1.6816716076
 H          3.7541645394       -1.0917006093       -1.3249865853
 H          3.7109724236       -0.0226386540        2.1259732881
 H          1.7866934158       -0.4786911365        3.6306102145
 H         -0.1746240153       -1.7103448596        2.7793719172
 H         -1.1361520135       -3.1287967087        1.1608763214
 C         -0.3363524869       -3.7719512636       -0.7136258140
 C          0.2583162170       -5.0734466491       -0.2680736767
 C         -1.1763268126       -5.0123776603       -0.6960878582
 H         -1.4539515536       -5.4594821024       -1.6389250889
 H         -1.9400534916       -5.0887498377        0.0639126141
 H          0.9683391107       -5.5654256029       -0.9151754976
 H          0.4693608402       -5.1891734058        0.7842488716
 H         -0.0468245444       -3.3898244326       -1.6845608129
