  62
        -98.94513834
 C         -1.5322436169       -0.8035668386       -0.0002752034
 C         -2.8058362076       -1.4174942027        0.0332898213
 C         -3.9075510769       -0.5803210184        0.5272709413
 C         -3.6485650884        0.6780533138        0.9280702411
 C         -4.6844931781        1.6561193164        1.4001336818
 C         -5.2287146072        2.4937731702        0.2344917843
 C         -5.6545455647        1.6637588944       -0.9765524853
 H         -6.0494618187        2.3561890345       -1.7231853920
 H         -4.7721672816        1.1898610314       -1.4125812564
 C         -6.7064024303        0.5883104120       -0.6709446367
 H         -7.4744045855        0.6185799708       -1.4468190159
 H         -7.1968692257        0.8080925617        0.2780879483
 C         -6.1614206325       -0.8408482107       -0.6400687186
 H         -7.0111022523       -1.5289198056       -0.6341364474
 H         -5.5904893916       -1.0350838972       -1.5516355102
 C         -5.2795644914       -1.1925051068        0.5647592671
 H         -5.7966356658       -0.9265862273        1.4891258877
 H         -5.1245914254       -2.2755638387        0.5575256109
 H         -4.4498650812        3.1898538877       -0.0848611352
 H         -6.0783984254        3.0763530787        0.5951724991
 H         -5.4962684332        1.1146227299        1.8819133445
 H         -4.2211175539        2.3224514953        2.1295373118
 O         -2.4063928173        1.2244297658        0.9049051738
 C         -1.3158777380        0.5041967150        0.4362807086
 O         -0.2385140405        1.1244270944        0.4624728211
 H          2.3620727137       -1.1076097246       -0.7914070303
 C          2.0679133714       -1.3413679347        0.2169761752
 C          0.7476532989       -1.6334310473        0.5183342089
 C          0.4243421144       -1.9786280862        1.8286028793
 C          1.3935177242       -2.0043802923        2.8116735889
 C          2.7051605729       -1.6764839150        2.5141757664
 C          3.0413607600       -1.3469578741        1.2075010126
 N          4.3626539529       -1.0293534083        0.8695707770
 S          4.7087467776        0.0092639161       -0.3889006588
 O          4.5522369441       -0.6718631763       -1.6502347280
 O          6.0471810245        0.4783588994       -0.0965783006
 C          3.5573885699        1.3661503072       -0.2760237359
 C          3.4421534141        2.0410272786        0.9219399839
 C          2.5658140203        3.1094373225        1.0059876460
 C          1.8261667715        3.4858756009       -0.1032067880
 C          1.9573860905        2.8019834349       -1.3001208380
 C          2.8294416806        1.7301731127       -1.3892814547
 H          2.9545387773        1.1651497846       -2.2999551188
 H          1.3748297790        3.0928631067       -2.1601905233
 H          1.1366878783        4.3121641299       -0.0327453314
 H          2.4544659189        3.6406391465        1.9376843446
 H          4.0321370558        1.7288363784        1.7686441508
 H          4.9956272855       -0.9162742911        1.6468054186
 H          3.4610075618       -1.6817446907        3.2843262174
 H          1.1258683228       -2.2717057162        3.8229386503
 H         -0.6026888152       -2.2205299881        2.0664356209
 C         -0.3443928465       -1.5910108412       -0.5207956784
 H         -0.7135001190       -2.6150850674       -0.6811722471
 C          0.1147183711       -1.0215890628       -1.8469417514
 C          0.8003240664       -1.8968364787       -2.8516894332
 C         -0.5975548940       -1.4188962007       -3.1035346343
 H         -0.7594545354       -0.6702419637       -3.8645298289
 H         -1.4049879723       -2.1308788351       -3.0126376979
 H          1.6071546903       -1.4802250404       -3.4364593058
 H          0.9423402053       -2.9356619810       -2.5941173978
 H          0.4407082778        0.0095598742       -1.7605086029
 O         -3.0106882828       -2.6088716540       -0.3263469784
