  62
        -98.94288266
 C         -2.0112858359       -0.3165948940        0.9442757757
 C         -2.8803809456       -1.1322767290        0.1786159878
 C         -4.2804090952       -0.6855165102        0.1028040374
 C         -4.6590228923        0.4333734058        0.7449051234
 C         -6.0350268234        1.0301347816        0.6967329984
 C         -6.1602951532        2.0455213446       -0.4478540646
 C         -5.6508699325        1.5268754448       -1.7927280262
 H         -5.8176111356        2.3160729138       -2.5291235314
 H         -4.5713469665        1.3712386618       -1.7286204985
 C         -6.3228186587        0.2316994894       -2.2697983136
 H         -7.2586568639        0.0799032338       -1.7307361216
 H         -6.5717285438        0.3362460598       -3.3279575554
 C         -5.4531360008       -1.0198317754       -2.1378895937
 H         -4.4780401877       -0.8373956946       -2.5962888785
 H         -5.9327309967       -1.8271026838       -2.6977459789
 C         -5.2265259348       -1.5263915672       -0.7079323873
 H         -6.1857713738       -1.6282544737       -0.1967836705
 H         -4.7655768042       -2.5159639359       -0.7755206834
 H         -7.2090619524        2.3337988912       -0.5401032777
 H         -5.5849920295        2.9363119932       -0.1846559658
 H         -6.7668277890        0.2343373968        0.5722259230
 H         -6.2223519702        1.5388489318        1.6439190935
 O         -3.8021564719        1.1838628913        1.4835206738
 C         -2.4687321862        0.8333496259        1.5959033722
 O         -1.7969843350        1.6118840295        2.3037732868
 H          1.5008157400        1.1596073345        1.1251819854
 C          1.3084691362        0.7559010039        0.1424066695
 C          0.2898658244       -0.1669200471       -0.0460608400
 C          0.0638332847       -0.6616409488       -1.3269950693
 C          0.8347420862       -0.2305423840       -2.3904911273
 C          1.8603614041        0.6786166318       -2.1959394261
 C          2.1000157459        1.1719184099       -0.9199432552
 N          3.1485237340        2.0827874616       -0.6789828414
 S          4.3329732949        1.6231607052        0.4131776378
 O          3.7685642646        1.5106090058        1.7328467504
 O          5.3950163502        2.5893347359        0.2450957000
 C          4.8653556819        0.0249827812       -0.1751628753
 C          4.1351160110       -1.0957105797        0.1679051283
 C          4.5026878173       -2.3212162285       -0.3648586758
 C          5.5876631487       -2.4057855918       -1.2237657747
 C          6.3137512298       -1.2715942257       -1.5546205899
 C          5.9467352519       -0.0420435517       -1.0321166842
 H          6.4828652760        0.8650766365       -1.2601952291
 H          7.1595740296       -1.3409870247       -2.2195056702
 H          5.8686528675       -3.3619910838       -1.6360624581
 H          3.9356107079       -3.2015917256       -0.1085500701
 H          3.2979687589       -0.9968198314        0.8392299744
 H          3.5861103440        2.4276586566       -1.5223463180
 H          2.4679599420        1.0083937537       -3.0252914016
 H          0.6428143664       -0.6150520652       -3.3806089427
 H         -0.7275004701       -1.3790754825       -1.4794492268
 C         -0.5335094441       -0.6205952958        1.1358676123
 H         -0.2219914207       -0.0225499976        2.0034802065
 C         -0.2566187728       -2.0802403730        1.4431782063
 C          0.9628597312       -2.4333768177        2.2380566972
 C         -0.3983482581       -2.5682369338        2.8516204652
 H         -0.7977561947       -3.5575462068        3.0162263134
 H         -0.6926671243       -1.8486042104        3.6023842106
 H          1.5901829014       -1.6239503934        2.5836901554
 H          1.5021746802       -3.3334262888        1.9858300412
 H         -0.5593220965       -2.7525352952        0.6516406343
 O         -2.5308912046       -2.1817447750       -0.4226608494
