  62
        -98.93424468
 C         -2.2862989219        0.3311967956       -0.2636883275
 C         -3.5348026084        0.7299387518       -0.7951364994
 C         -4.6722041492       -0.1689226126       -0.5398773002
 C         -4.4738637536       -1.2969268282        0.1637943447
 C         -5.4721781469       -2.3728071563        0.5125613202
 C         -6.8701384652       -1.9260545979        0.9617546105
 C         -6.9091911072       -0.6092430265        1.7508954597
 H         -7.4712598640       -0.7650806093        2.6735851621
 H         -5.8976490732       -0.3114669239        2.0325469241
 C         -7.5801216685        0.5295561092        0.9791003470
 H         -7.9038542626        1.2929798751        1.6905860564
 H         -8.4745839889        0.1404101114        0.4878291951
 C         -6.7005757466        1.2236433990       -0.0599251350
 H         -7.3255097869        1.9285608702       -0.6134030836
 H         -5.9254558460        1.8088645761        0.4421660816
 C         -6.0022904608        0.2918605205       -1.0636854594
 H         -6.6404478667       -0.5454415601       -1.3349244683
 H         -5.7855777701        0.8720132796       -1.9647791309
 H         -7.2743692741       -2.7313697050        1.5774081690
 H         -7.5214998517       -1.8385780949        0.0933811516
 H         -5.5693535563       -3.0380855095       -0.3503814438
 H         -4.9980925814       -2.9498514524        1.3101860718
 O         -3.2488035283       -1.6454165296        0.6534135346
 C         -2.1302948266       -0.8511772746        0.4566395008
 O         -1.0837637831       -1.3023903622        0.9619420607
 H          1.6157249400        1.0328388241        0.1142533097
 C          1.3329951654        0.4701816905       -0.7584322444
 C          0.0162516055        0.4533825439       -1.1904662253
 C         -0.3038475064       -0.2810341806       -2.3298426232
 C          0.6651640874       -1.0003743846       -3.0005136757
 C          1.9738002708       -1.0020401524       -2.5505197701
 C          2.3092235324       -0.2573950914       -1.4263293183
 N          3.6480294598       -0.1983585382       -0.9950937838
 S          4.0346543734       -0.2097119679        0.6476152127
 O          3.5778022855       -1.4339521402        1.2685871771
 O          3.5956181312        1.0220520609        1.2510452190
 C          5.8142421283       -0.2098000040        0.5227693533
 C          6.4424271059        0.9676092922        0.1628033819
 C          7.8217452955        0.9784364248        0.0323235568
 C          8.5466612745       -0.1815693075        0.2630462135
 C          7.9028740585       -1.3545207717        0.6266747119
 C          6.5227081621       -1.3725161353        0.7569540613
 H          5.9798042788       -2.2591696809        1.0429712518
 H          8.4690931667       -2.2537257215        0.8088544834
 H          9.6203721333       -0.1703999753        0.1613158920
 H          8.3260736863        1.8891959577       -0.2476889283
 H          5.8387428472        1.8453324570        0.0019003549
 H          4.2276917993       -0.8739859411       -1.4765980328
 H          2.7295216382       -1.5725901224       -3.0691344743
 H          0.3999192622       -1.5719742441       -3.8773852786
 H         -1.3286356897       -0.2866096844       -2.6762558005
 C         -1.0760867607        1.2184583694       -0.4852904839
 H         -1.4206123519        2.0208299648       -1.1555987375
 C         -0.6314701408        1.8371058413        0.8232032584
 C          0.0514217370        3.1708545126        0.8361797536
 C         -1.3525184627        3.0429205572        1.3437700061
 H         -1.5289250612        3.1193369486        2.4062777033
 H         -2.1533169160        3.4398974127        0.7368884010
 H          0.8482612999        3.3305382217        1.5471938521
 H          0.2033548218        3.6613227984       -0.1134284704
 H         -0.3112716332        1.0944512391        1.5472556633
 O         -3.6904343777        1.7839296283       -1.4681340071
