  62
        -98.94535578
 C          1.7037622968        0.8478180768        0.1670439895
 C          2.7668627353        0.5711788700        1.0591668372
 C          3.4883763124       -0.6854968646        0.8273768832
 C          3.0946510509       -1.5085628441       -0.1615263394
 C          3.7147740412       -2.8349828019       -0.5082224344
 C          4.9464859708       -2.7283625060       -1.4179407353
 C          6.2087935362       -2.1879808431       -0.7447704836
 H          6.4058012046       -2.7558392799        0.1651833445
 H          7.0396998704       -2.3716475047       -1.4288212588
 C          6.1609287084       -0.6886578157       -0.4185400387
 H          5.3610127275       -0.2158965184       -0.9930084704
 H          7.0972414232       -0.2186327944       -0.7275517641
 C          5.9615959459       -0.3682412549        1.0628813963
 H          5.9056945249        0.7176861002        1.1743249689
 H          6.8235587447       -0.7205103151        1.6338581690
 C          4.6910207169       -0.9731909830        1.6742719390
 H          4.8139359350       -2.0475451402        1.8112380788
 H          4.5275191703       -0.5124159089        2.6518534008
 H          4.6940216526       -2.1006755272       -2.2756216395
 H          5.1618796625       -3.7317918363       -1.7923917048
 H          2.9483463969       -3.4097740464       -1.0329330126
 H          3.9811796436       -3.3664335348        0.4060488733
 O          2.0392913739       -1.2274640390       -0.9711228448
 C          1.3354727053       -0.0338175012       -0.8498743349
 O          0.4190408653        0.1036780271       -1.6790478173
 O          3.0930184901        1.3349221926        2.0080944375
 C          0.9466156670        2.1525625834        0.3162395877
 C         -0.5346633357        1.9352576926        0.5096788054
 C         -1.4805907783        2.8563084711        0.0735229278
 C         -2.8303025435        2.6377493203        0.2882656204
 C         -3.2706719163        1.4915236235        0.9236593300
 C         -2.3349379524        0.5574086664        1.3491173431
 C         -0.9815598334        0.7933467161        1.1601219450
 H         -0.2607547957        0.0635947349        1.5082811545
 N         -2.7724428945       -0.6355254306        1.9484406915
 S         -4.0706204520       -1.4248338545        1.2411530016
 O         -5.2988492899       -0.9098888020        1.7961636236
 O         -3.8270560301       -2.8327446005        1.4713043757
 C         -4.0070269922       -1.0471026368       -0.5028755326
 C         -2.8165873734       -1.2114932850       -1.1817458594
 C         -2.7597079841       -0.8865601409       -2.5269243658
 C         -3.8943552638       -0.4196428259       -3.1721362245
 C         -5.0877643028       -0.2752653670       -2.4812921969
 C         -5.1457616975       -0.5849317334       -1.1322332095
 H         -6.0466512865       -0.4694674854       -0.5515534505
 H         -5.9688220781        0.0868814288       -2.9862205288
 H         -3.8443807737       -0.1637577351       -4.2187320310
 H         -1.8186627114       -0.9772684778       -3.0452624712
 H         -1.9385181371       -1.5686556507       -0.6672902696
 H         -2.0281883801       -1.2841943317        2.1584028690
 H         -4.3180003178        1.3024897687        1.0961686657
 H         -3.5504051843        3.3663904332       -0.0504000990
 H         -1.1582486889        3.7491831908       -0.4363190004
 H          1.3437054359        2.6153371556        1.2331241287
 C          1.2562713494        3.0623342228       -0.8576538984
 C          1.3795733964        4.5439318557       -0.6682029536
 C          2.6025426985        3.7172894102       -0.9242332687
 H          3.0926721698        3.7969200101       -1.8830012882
 H          3.2803298855        3.5373114686       -0.1022124029
 H          1.0303646476        5.1951074776       -1.4554149290
 H          1.2372077760        4.9365559135        0.3273824470
 H          0.8315596381        2.6969900542       -1.7859978323
