  62
        -98.92992354
 C          2.6345828552        0.8611886284        0.5614774514
 C          2.7982612367       -0.3110409132        1.3423580961
 C          3.6682772133       -1.3490033517        0.7824050989
 C          4.2533002423       -1.1517478836       -0.4128081528
 C          5.1772704870       -2.1093008000       -1.1150884218
 C          4.4515298851       -3.1947613679       -1.9220918105
 C          3.7739883666       -4.2830939266       -1.0882707010
 H          3.4978900052       -5.0860335165       -1.7746203284
 H          4.4918054742       -4.6945496939       -0.3779752931
 C          2.5155714478       -3.8190123337       -0.3414395358
 H          1.7198270085       -4.5549271650       -0.4770854292
 H          2.1598209968       -2.8807295029       -0.7740637408
 C          2.7059856392       -3.6299385760        1.1636682029
 H          1.7660476740       -3.2641700180        1.5847643582
 H          2.9315631520       -4.5922121654        1.6285553399
 C          3.8113751014       -2.6346653758        1.5399638499
 H          3.7197025482       -2.4061580824        2.6046245981
 H          4.7917712822       -3.0748395591        1.3597943004
 H          5.1931737825       -3.6709373989       -2.5676054911
 H          3.7107635629       -2.7142177394       -2.5655117084
 H          5.7782586599       -1.5121904371       -1.8042210386
 H          5.8426199229       -2.5769274550       -0.3887910599
 O          4.0735377424       -0.0148880874       -1.1327724906
 C          3.2467754428        1.0100841432       -0.6846588500
 O          3.1594664181        1.9615888070       -1.4786680154
 H         -0.4150565629        0.4228297256        1.0688170705
 C         -0.4836763021        1.1693679720        0.2868905318
 C          0.5459572459        2.0984212245        0.1558049067
 C          0.4463165789        3.0346570375       -0.8657528235
 C         -0.6512432596        3.0385255413       -1.7109491024
 C         -1.6650310850        2.1089980798       -1.5774808005
 C         -1.5728174258        1.1559953838       -0.5712830678
 N         -2.5683021735        0.1672287518       -0.4408889404
 S         -4.1806070497        0.6672295951       -0.5113153403
 O         -4.5264718530        0.9086292130       -1.8893455667
 O         -4.3999526959        1.7714571403        0.3968513397
 C         -5.0072933418       -0.7981921493        0.0728582350
 C         -5.4030338528       -0.8748037704        1.3945231515
 C         -6.0189532506       -2.0327212363        1.8431359989
 C         -6.2240708107       -3.0888133452        0.9681125786
 C         -5.8209771499       -2.9966630577       -0.3559683143
 C         -5.2054338039       -1.8417310960       -0.8112569471
 H         -4.8826433527       -1.7218185501       -1.8322044045
 H         -5.9843688533       -3.8193350715       -1.0333009385
 H         -6.7033828931       -3.9886354410        1.3200780655
 H         -6.3351865959       -2.1067510871        2.8711878809
 H         -5.2303607878       -0.0263775918        2.0373187661
 H         -2.4164880473       -0.4073667557        0.3775755184
 H         -2.5197853061        2.1085583587       -2.2341648431
 H         -0.7106462559        3.7773827483       -2.4964074116
 H          1.2326127082        3.7476472796       -1.0347103426
 C          1.7036852384        1.9363723964        1.1095362312
 H          1.2872234235        1.4756843017        2.0196819820
 C          2.4685360952        3.1534053211        1.6099969265
 C          3.1449551770        4.1876134754        0.7635535622
 C          1.9352449459        4.5537594442        1.5699883937
 H          2.0746527375        5.1761171466        2.4415344233
 H          1.0034689673        4.7250339580        1.0544489840
 H          3.0778203281        4.1014445473       -0.3079020593
 H          4.1075353039        4.5472967074        1.0995069484
 H          3.0126667592        2.8836971913        2.5125782993
 O          2.2386214084       -0.4824496188        2.4597934983
