  62
        -98.94441607
 C          1.8393941650        0.0153572310       -0.4155569934
 C          2.9805397893       -0.3797127444       -1.1539324178
 C          4.2709402986        0.1153436384       -0.6572558156
 C          4.2955937612        0.9110533716        0.4277064022
 C          5.5430967443        1.4430800815        1.0706142209
 C          6.0504800824        0.4957444009        2.1668447021
 C          6.1451024697       -0.9649317430        1.7258567845
 H          6.5420802102       -1.5338311565        2.5694316020
 H          5.1393461365       -1.3429528671        1.5285168954
 C          7.0260037167       -1.1996172919        0.4907689237
 H          7.6663463209       -2.0643847911        0.6770072666
 H          7.6795445575       -0.3408471910        0.3333693006
 C          6.2501825178       -1.4887439247       -0.7955941698
 H          6.9583460327       -1.8512410123       -1.5454137414
 H          5.5270263492       -2.2879633179       -0.6149691229
 C          5.5062711109       -0.2954888657       -1.4084034563
 H          6.1904959884        0.5484285949       -1.5169205772
 H          5.1655715262       -0.5925816031       -2.4045874095
 H          5.3667074415        0.5532223833        3.0170446944
 H          7.0315422119        0.8430411585        2.4960621342
 H          6.3091210393        1.5780086837        0.3094537373
 H          5.3129127403        2.4116459318        1.5177105475
 O          3.1762914994        1.2880014718        1.0978941494
 C          1.9214662797        0.8457287294        0.7019873687
 O          0.9845190316        1.2584646768        1.4116054943
 H         -2.1232479599       -0.0653812466       -0.0144708196
 C         -1.7430735364        0.7355859010       -0.6256139768
 C         -0.4490981335        0.6859135390       -1.1206782699
 C          0.0050857425        1.7412976256       -1.9080538698
 C         -0.8042231731        2.8299235401       -2.1650571017
 C         -2.0853824751        2.8890381774       -1.6454124181
 C         -2.5559602253        1.8342010174       -0.8730031584
 N         -3.8681976019        1.8492558417       -0.3865244538
 S         -4.3398396750        1.0279108507        0.9869709962
 O         -5.6331956046        1.5978580075        1.3045364153
 O         -3.3534426320        1.0821008659        2.0394596426
 C         -4.5772506026       -0.6514046414        0.4430825028
 C         -4.2718662827       -1.6817961389        1.3098853867
 C         -4.5052460588       -2.9885348452        0.9096430059
 C         -5.0364377616       -3.2409540302       -0.3456768712
 C         -5.3381012555       -2.1948606909       -1.2042039383
 C         -5.1123727941       -0.8863016536       -0.8080627340
 H         -5.3366753596       -0.0508247615       -1.4495952053
 H         -5.7496188338       -2.3949551330       -2.1803378735
 H         -5.2143063483       -4.2585673232       -0.6555097513
 H         -4.2717053407       -3.8026396284        1.5776057023
 H         -3.8477908341       -1.4404192532        2.2721046959
 H         -4.3687209066        2.7167901066       -0.5073063301
 H         -2.7155317638        3.7443645070       -1.8355126359
 H         -0.4341941021        3.6443161311       -2.7697441140
 H          1.0096045719        1.6999738183       -2.3069411335
 C          0.4744265123       -0.4773298372       -0.8600702881
 H          0.6510642527       -0.9955371310       -1.8148851982
 C         -0.0759254754       -1.4753952710        0.1369909093
 C         -0.9813013897       -2.5775132381       -0.3235563138
 C          0.4233793950       -2.8875982973        0.0958803154
 H          0.5833593904       -3.4048227552        1.0300466017
 H          1.1453676815       -3.1337715770       -0.6690480615
 H         -1.7910533477       -2.8827861501        0.3215679745
 H         -1.2168174807       -2.6210362427       -1.3759722607
 H         -0.2558249807       -1.0341642949        1.1120923364
 O          2.9209832630       -1.1063032374       -2.1821492014
