  62
        -98.94191815
 C         -1.3521557304       -1.1904163591        0.6889968362
 C         -2.1578658920       -0.9380309290       -0.4489240169
 C         -2.7741448084        0.3997940445       -0.5097210165
 C         -2.4967487650        1.3097764431        0.4389229445
 C         -3.0715564461        2.6944756530        0.5024140014
 C         -4.3671621435        2.7257463438        1.3252653549
 C         -5.3750126663        1.6464690393        0.9304868037
 H         -4.9587255419        0.6658881287        1.1719173584
 H         -6.2605982393        1.7839215892        1.5545450302
 C         -5.7831460452        1.6710801016       -0.5489564701
 H         -6.8671004285        1.5567026397       -0.6159884691
 H         -5.5311589626        2.6375008922       -0.9870155075
 C         -5.1648627233        0.5568623207       -1.3955473868
 H         -5.3354052107       -0.4084134951       -0.9121023130
 H         -5.6807045002        0.5357833340       -2.3592749815
 C         -3.6643052255        0.6911577372       -1.6848810327
 H         -3.4506030584        1.6829703877       -2.0899119305
 H         -3.4027200286       -0.0489203867       -2.4473452351
 H         -4.1111729015        2.5869079817        2.3781091233
 H         -4.8231393717        3.7110182536        1.2128119612
 H         -2.3343705192        3.3488430878        0.9713560491
 H         -3.2590126377        3.0480542465       -0.5098130648
 O         -1.6800625503        1.0494456984        1.4912373539
 C         -1.0925275254       -0.1950240075        1.6346199936
 O         -0.3606064302       -0.3004372186        2.6405511285
 O         -2.3727305975       -1.7632005125       -1.3732267514
 C         -0.5814412113       -2.4809085818        0.9312762395
 C          0.8698150519       -2.2588034643        0.5818870753
 C          1.8947362007       -2.7726259821        1.3674258032
 C          3.2184717518       -2.5308584224        1.0445226483
 C          3.5437736980       -1.7428190593       -0.0450970998
 C          2.5253511578       -1.2157092783       -0.8298270543
 C          1.2020138723       -1.4996046147       -0.5309311488
 H          0.4246448619       -1.0847901657       -1.1548468669
 N          2.7987391955       -0.3555440442       -1.9155843569
 S          2.2251073867        1.2134175902       -1.7528735555
 O          0.7873205613        1.2136276186       -1.6881610076
 O          2.8225629115        1.9458379144       -2.8482760664
 C          2.9233625478        1.7657397681       -0.2073436821
 C          4.1419860028        2.4171362696       -0.2186980119
 C          4.7228014679        2.7747118870        0.9871161507
 C          4.0848759486        2.4649392806        2.1793322291
 C          2.8637708133        1.8087306612        2.1739621987
 C          2.2747871270        1.4542917378        0.9704145854
 H          1.3241631939        0.9450953270        0.9412828192
 H          2.3562788130        1.5588499248        3.0923042978
 H          4.5390508288        2.7369139821        3.1190319082
 H          5.6703846590        3.2888064693        0.9943098821
 H          4.5991422087        2.6402143023       -1.1692941520
 H          3.7771362541       -0.3236030986       -2.1701470239
 H          4.5746958830       -1.5277075079       -0.2821993282
 H          4.0044711740       -2.9389148932        1.6609720754
 H          1.6483435289       -3.3472250482        2.2479720083
 H         -0.6282224562       -2.6615498524        2.0184582375
 C         -1.1691905919       -3.7025691860        0.2435902184
 C         -0.5935212807       -4.2846636221       -1.0085274163
 C         -0.4491709411       -5.0179066644        0.2892886286
 H         -1.0299600343       -5.9146834591        0.4428571960
 H          0.5303361335       -5.0406865973        0.7415449141
 H         -1.2832848363       -4.6568028366       -1.7502762987
 H          0.2803238696       -3.8120367351       -1.4307970137
 H         -2.2491033567       -3.7371856788        0.3348135770
