  62
        -98.94446891
 C         -2.6551719762       -1.2967568977        0.1161992743
 C         -2.5695109796       -0.2929681342       -0.8789030760
 C         -3.5617747543        0.7886671442       -0.7847825115
 C         -4.4804624596        0.7624767936        0.1974568002
 C         -5.5100397407        1.8266584208        0.4407594971
 C         -4.9882480370        2.8888891482        1.4184774717
 C         -3.5993056198        3.4233238660        1.0679725869
 H         -3.3488318146        4.1879367970        1.8065166830
 H         -2.8662529419        2.6203894759        1.1783348011
 C         -3.4852194843        4.0196673113       -0.3419240779
 H         -2.9354043267        4.9611621393       -0.2801908251
 H         -4.4787281257        4.2486789282       -0.7293701337
 C         -2.7414808775        3.1375594741       -1.3468711557
 H         -2.5289654633        3.7393781631       -2.2349037675
 H         -1.7795116460        2.8304335714       -0.9261488489
 C         -3.4896275369        1.8820098351       -1.8131859164
 H         -4.4890707033        2.1560793589       -2.1571342873
 H         -2.9372190331        1.4628836507       -2.6594252733
 H         -5.7012171800        3.7148560207        1.4437493226
 H         -4.9422520107        2.4479594300        2.4168077372
 H         -6.3964449118        1.3558873795        0.8690197003
 H         -5.7778258471        2.2897849974       -0.5067868284
 O         -4.5432876106       -0.2277153664        1.1232867491
 C         -3.6254182819       -1.2630758099        1.1210905709
 O         -3.7779567069       -2.0852309157        2.0461362578
 O         -1.7189736858       -0.2911181818       -1.8083792110
 C         -1.6597778752       -2.4460956862        0.1688855983
 C         -0.3119056919       -1.8713738271        0.5304343176
 C         -0.0315463304       -1.5898758730        1.8649619423
 C          1.1633328363       -0.9959067807        2.2245026682
 C          2.0991723637       -0.6593368165        1.2611469604
 C          1.8205155425       -0.9191066342       -0.0732349609
 C          0.6294695986       -1.5386925529       -0.4301527015
 H          0.4211263799       -1.7230507134       -1.4718873044
 N          2.7571637838       -0.5682368965       -1.0603091996
 S          3.4413063986        0.9630667486       -0.9968911267
 O          2.5693318102        1.9186562118       -0.3538480588
 O          3.8327724014        1.2601849474       -2.3577410859
 C          4.9110295026        0.7205986475       -0.0190002086
 C          5.7792733416       -0.2887143270       -0.3869881189
 C          6.9328645695       -0.4830817591        0.3555320024
 C          7.1997419768        0.3323194460        1.4453641237
 C          6.3202282448        1.3435876451        1.7998854109
 C          5.1637146939        1.5425140306        1.0616453324
 H          4.4481262545        2.3123288074        1.3037535615
 H          6.5290383571        1.9769392159        2.6471256476
 H          8.0983264188        0.1788385540        2.0218254455
 H          7.6190786558       -1.2686619240        0.0830742727
 H          5.5366895940       -0.8982816444       -1.2412505196
 H          2.4474708558       -0.7795102338       -1.9983850852
 H          3.0272523625       -0.1831997204        1.5325584799
 H          1.3684211982       -0.7879733848        3.2637531330
 H         -0.7730865318       -1.8308540690        2.6144031766
 H         -1.9883805917       -3.0897124723        0.9954739269
 C         -1.6616210245       -3.2581444132       -1.1091563850
 C         -1.0092995975       -4.6070627631       -1.1190198153
 C         -2.5020694756       -4.4955950895       -1.1866052536
 H         -2.9959595930       -4.7241530682       -2.1191861790
 H         -3.0764297599       -4.7645569347       -0.3121133197
 H         -0.4764075518       -4.9167061963       -2.0050216439
 H         -0.5683396672       -4.9520791494       -0.1961239297
 H         -1.5932259252       -2.6532765741       -2.0046414382
