  62
        -98.94309820
 C         -1.8119548896       -0.1191615010        0.3352168706
 C         -2.7312377396       -0.6805632607       -0.5848283496
 C         -3.9875352997        0.0630157692       -0.7708946092
 C         -4.1850167198        1.2135476788       -0.1038298087
 C         -5.4369983599        2.0387809687       -0.1638249483
 C         -6.4289234899        1.6227375280        0.9315824316
 C         -6.6703464296        0.1149919379        1.0059241909
 H         -5.7467761195       -0.3783145721        1.3173223206
 H         -7.4074972896       -0.0573894625        1.7931763308
 C         -7.1640292596       -0.5144227915       -0.3042534894
 H         -7.9872066595       -1.1950598518       -0.0769478997
 H         -7.5576007697        0.2611996587       -0.9622068890
 C         -6.1077468695       -1.3275700210       -1.0547187498
 H         -5.6457095193       -2.0453681013       -0.3724897701
 H         -6.6126241094       -1.8986521907       -1.8383490100
 C         -4.9934531196       -0.5153099505       -1.7264943394
 H         -4.4331874095       -1.1938539202       -2.3761211298
 H         -5.4319361297        0.2694924897       -2.3459745291
 H         -7.3752491499        2.1367641380        0.7535444418
 H         -6.0380195099        1.9550164776        1.8962107817
 H         -5.1658367201        3.0858174386       -0.0178759478
 H         -5.8942267100        1.9257551391       -1.1449155983
 O         -3.2700367199        1.7355005386        0.7530239215
 C         -2.0751834698        1.0823596186        0.9997263412
 O         -1.3407307498        1.6606605584        1.8269691615
 H          1.4633543002        1.1055934394        0.5761501411
 C          1.4357944003        0.5215932998       -0.3322511691
 C          0.5000253504       -0.4941447003       -0.4765638596
 C          0.4668968405       -1.2076304798       -1.6704905099
 C          1.3477458304       -0.9031198091       -2.6917627098
 C          2.2893237203        0.0992493709       -2.5385559094
 C          2.3300009302        0.8195118504       -1.3511839190
 N          3.2758077201        1.8451979304       -1.1645328086
 S          4.2212022801        1.8103669299        0.2164461514
 O          3.4395251801        2.1706585593        1.3708205216
 O          5.3458116900        2.6674819702       -0.0888591183
 C          4.7581384304        0.1134181700        0.3286826906
 C          5.8115490804       -0.2929434395       -0.4672546096
 C          6.1911704506       -1.6249285595       -0.4493578903
 C          5.5069961807       -2.5256494299        0.3527382293
 C          4.4524376307       -2.1022248505        1.1465102996
 C          4.0708988105       -0.7697575905        1.1361369202
 H          3.2598320505       -0.3986495609        1.7418107304
 H          3.9229829708       -2.8042893308        1.7706720192
 H          5.7980430609       -3.5640206899        0.3629447088
 H          7.0143724006       -1.9568066091       -1.0611576805
 H          6.3218051903        0.4417466408       -1.0688820393
 H          3.8528180900        2.0200466509       -1.9752490185
 H          2.9799204402        0.3325742814       -3.3348100893
 H          1.3053460505       -1.4578542387       -3.6166495001
 H         -0.2769527594       -1.9760209198       -1.8050449603
 C         -0.4696909695       -0.7649602510        0.6492378703
 H         -0.0960434896       -0.2417882313        1.5401641705
 C         -0.5884821093       -2.2401297111        0.9747725296
 C          0.5040704608       -2.8983514813        1.7597184793
 C         -0.8318201592       -2.6541352018        2.3935757894
 H         -1.4795346490       -3.4976378120        2.5800938091
 H         -0.9102042593       -1.8728325122        3.1363823198
 H          0.7783520710       -3.9120216712        1.5122195388
 H          1.3297791508       -2.2785752214        2.0751136596
 H         -1.0781501492       -2.8182850109        0.2031900694
 O         -2.5382355994       -1.7472466304       -1.2234675201
