  62
        -98.94666015
 C          1.1733265957        1.2671248590        0.0773591145
 C          1.5748457614        0.3002242867        1.0317766448
 C          2.4176281047       -0.7915492173        0.5313800544
 C          2.7048134552       -0.8477129210       -0.7819758659
 C          3.6299940567       -1.8462291280       -1.4144912001
 C          5.0721639574       -1.3193843547       -1.4418928605
 C          5.5612887870       -0.7823751456       -0.0966913612
 H          6.6001030800       -0.4723706623       -0.2292634915
 H          4.9901650980        0.1127169593        0.1600420283
 C          5.4718994684       -1.7882591473        1.0596098035
 H          6.4035772759       -1.7519918447        1.6281826285
 H          5.3739958998       -2.8001030701        0.6648232955
 C          4.3363805070       -1.5171608390        2.0483825381
 H          4.4929287230       -2.1480725612        2.9274394618
 H          4.3820439238       -0.4770518634        2.3810835862
 C          2.9200007634       -1.7962331644        1.5291410275
 H          2.8727048300       -2.8055642046        1.1164898634
 H          2.2366757526       -1.7405771114        2.3813678828
 H          5.1324478259       -0.5115265261       -2.1747754450
 H          5.7279227482       -2.1269016567       -1.7726697509
 H          3.5895553942       -2.7807657475       -0.8581017629
 H          3.3026021130       -2.0233128043       -2.4403786872
 O          2.2148515420        0.0381004484       -1.6832382330
 C          1.4346039008        1.1141490952       -1.2848007159
 O          1.0503868899        1.8352798362       -2.2233851609
 H         -1.2782753470        0.7139109599        1.6626753633
 C         -1.7790571108        1.2566308403        0.8710070178
 C         -1.0779465854        2.2418973938        0.1845460869
 C         -1.7213149673        2.9238201725       -0.8391046993
 C         -3.0333896359        2.6211674900       -1.1646708687
 C         -3.7293092307        1.6425332292       -0.4779381233
 C         -3.0916755258        0.9556710694        0.5473874521
 N         -3.7888475371       -0.0634106569        1.2396005762
 S         -4.0721757864       -1.4514517759        0.3470980812
 O         -4.9219316637       -1.1186122302       -0.7666532555
 O         -4.5893469696       -2.4234268795        1.2825282891
 C         -2.4673134229       -1.9648714298       -0.2397941637
 C         -1.7769515250       -2.9319152559        0.4628658419
 C         -0.5185143708       -3.3087812333        0.0241794840
 C          0.0293722003       -2.7058141058       -1.0971563914
 C         -0.6681290270       -1.7222088344       -1.7808622757
 C         -1.9300569307       -1.3455604594       -1.3507445560
 H         -2.5018556329       -0.5908093743       -1.8661327847
 H         -0.2311632074       -1.2394378610       -2.6412476334
 H          1.0055445737       -3.0036756903       -1.4441550661
 H          0.0311429675       -4.0686369743        0.5558661172
 H         -2.2434574251       -3.3799434715        1.3256371795
 H         -3.3354455825       -0.3249502422        2.1048906127
 H         -4.7443809992        1.3841406662       -0.7318913186
 H         -3.5207345299        3.1559119649       -1.9658815888
 H         -1.1904850146        3.6801927038       -1.3929816061
 C          0.3648958371        2.4600825387        0.5638096093
 H          0.4283354906        2.4224965121        1.6605241235
 C          0.9375366033        3.7774992228        0.0896905629
 C          0.5251181280        5.0440950078        0.7763109971
 C          1.9115466247        4.5074424257        0.9633473829
 H          2.7340898974        5.0269150675        0.4950031407
 H          2.1630189210        4.0625160193        1.9152042985
 H          0.3945486033        5.9350872758        0.1815973649
 H         -0.1665954708        4.9609892208        1.6010142940
 H          1.1104971893        3.8113619143       -0.9786270753
 O          1.2493486354        0.3552365849        2.2491520491
