  62
        -98.94376881
 C          1.4839679734        1.2617260514        0.7175188596
 C          2.5443636896        1.1760372667       -0.2168380139
 C          3.4289168316        0.0076804133       -0.0730662491
 C          3.1441620185       -0.9338399187        0.8442878431
 C          3.9247740449       -2.2003999638        1.0445280913
 C          3.3962070428       -3.3415530857        0.1635334356
 C          3.2052930791       -2.9566412591       -1.3031841004
 H          2.8456364641       -3.8435399086       -1.8295682614
 H          2.4230234810       -2.1975409849       -1.3781406984
 C          4.4707429318       -2.4281923252       -1.9915532967
 H          5.3528354118       -2.7048038033       -1.4128538481
 H          4.5636494146       -2.9026549114       -2.9707431921
 C          4.4702975369       -0.9165599756       -2.2239466888
 H          3.5451624500       -0.6217613505       -2.7257064872
 H          5.2975192476       -0.6747242079       -2.8966724140
 C          4.6357656186       -0.0521294405       -0.9680095508
 H          5.5102662787       -0.3872276696       -0.4060603459
 H          4.8133837682        0.9755482700       -1.2982805362
 H          2.4332335595       -3.6723422332        0.5584530368
 H          4.0935097308       -4.1785672066        0.2311576646
 H          3.8404250298       -2.4933021262        2.0923301492
 H          4.9721985702       -2.0112993100        0.8161336517
 O          2.0746791153       -0.8528413125        1.6761634459
 C          1.2339025455        0.2445941414        1.6448896331
 O          0.3101854915        0.2078993691        2.4812582691
 O          2.7692096977        2.0176710788       -1.1254039347
 C          0.4928437137        2.4167831415        0.7504392406
 C         -0.6074179435        2.1140958944       -0.2366024804
 C         -0.4157691319        2.2265211850       -1.6094905962
 C         -1.4233868664        1.8718709879       -2.4887995287
 C         -2.6373414047        1.3970304824       -2.0215270901
 C         -2.8328751770        1.2737236795       -0.6531764470
 C         -1.8240816037        1.6348778497        0.2286943707
 H         -1.9726280584        1.5144509199        1.2936492983
 N         -4.0599684653        0.7576666973       -0.1728677233
 S         -4.2929653258       -0.8790061823       -0.4505965463
 O         -4.3255837467       -1.1051800014       -1.8724929439
 O         -5.4841567085       -1.2357413036        0.2851006733
 C         -2.8657012955       -1.6696142071        0.2682172629
 C         -2.9352049805       -2.1195263993        1.5713009578
 C         -1.8034009588       -2.6647387117        2.1540730471
 C         -0.6243542677       -2.7407696391        1.4302637208
 C         -0.5706370794       -2.2814245780        0.1242841182
 C         -1.6987207874       -1.7362628425       -0.4657353639
 H         -1.6900202974       -1.3670428037       -1.4788688586
 H          0.3510189295       -2.3340859667       -0.4336860920
 H          0.2623529653       -3.1458705835        1.8919395119
 H         -1.8376849348       -3.0171536905        3.1723496325
 H         -3.8722464139       -2.0415208616        2.0995582976
 H         -4.1977906450        0.9349659083        0.8131249579
 H         -3.4238711705        1.0960422982       -2.6941837189
 H         -1.2615472686        1.9624984810       -3.5523913632
 H          0.5387495297        2.5662301882       -1.9806425769
 H          0.0502961467        2.3989489335        1.7555314016
 C          1.1172712443        3.7783320874        0.5307909772
 C          0.3438439858        4.9966286409        0.9336039458
 C          1.5525940776        4.5827960289        1.7169063589
 H          2.4507940462        5.1760839948        1.6341630052
 H          1.4027516460        4.1543861938        2.6974985144
 H          0.4089691712        5.8765936675        0.3124605256
 H         -0.6266368850        4.8475551172        1.3829677191
 H          1.7295955712        3.8420180748       -0.3577958599
