  62
        -98.94371045
 C         -1.2619559514       -0.8738005732        0.1697789068
 C         -1.7233220852        0.2346043007        0.9238426459
 C         -2.7701879460        1.0506740476        0.3006584079
 C         -3.1613400097        0.7818367470       -0.9576183631
 C         -4.1983788242        1.5371572238       -1.7437629848
 C         -5.6410919702        1.0975592500       -1.4579561048
 C         -6.1962443407        1.5278971364       -0.0995002311
 H         -6.0491664872        2.6009036636        0.0275630258
 H         -7.2726248526        1.3466458966       -0.1220633907
 C         -5.5947055837        0.7782633002        1.0974176930
 H         -5.1005827161       -0.1303983275        0.7455613290
 H         -6.3954199230        0.4665145422        1.7716799959
 C         -4.6000760062        1.5949718127        1.9225966401
 H         -4.2118458494        0.9573125123        2.7209206203
 H         -5.1148670715        2.4392957697        2.3861778210
 C         -3.4062503721        2.1314475722        1.1214370163
 H         -3.7198230036        2.9581727565        0.4839297498
 H         -2.6551530834        2.4999132919        1.8246975358
 H         -6.2726020401        1.5291880287       -2.2378937108
 H         -5.6986893024        0.0102784081       -1.5479741956
 H         -4.0957776708        2.6059878495       -1.5525128494
 H         -3.9829050766        1.3524451343       -2.7985579813
 O         -2.6205354260       -0.2276218389       -1.6888882316
 C         -1.6679985567       -1.0842637114       -1.1487476381
 O         -1.2763761064       -1.9610891842       -1.9412753910
 O         -1.2746217032        0.5305655559        2.0638362365
 C         -0.1978695971       -1.7550303894        0.7968252522
 C          0.9833730164       -1.8902204889       -0.1310991516
 C          1.5968826811       -3.0943307670       -0.4491704983
 C          2.6988853162       -3.1150806823       -1.2873449085
 C          3.2260988239       -1.9453745493       -1.8028251214
 C          2.6160097075       -0.7348055315       -1.4927176622
 C          1.5040918501       -0.7203580561       -0.6687579223
 H          1.0150333218        0.2198544723       -0.4642878950
 N          3.1114466329        0.4800544159       -1.9888913947
 S          2.9972515866        1.8583303012       -1.0521255388
 O          1.6528186056        2.3796355049       -1.0794290914
 O          4.0206737821        2.7342186361       -1.5827859174
 C          3.4453010179        1.3355119078        0.5946018167
 C          2.5115139918        1.3217627556        1.6100882445
 C          2.8898416782        0.8615166774        2.8618366923
 C          4.1882895796        0.4275393875        3.0766817515
 C          5.1188897662        0.4575607257        2.0488168112
 C          4.7454935728        0.9127421313        0.7954045100
 H          5.4427314828        0.9597844255       -0.0251708673
 H          6.1297613780        0.1246447540        2.2199846698
 H          4.4754844662        0.0664366682        4.0515440490
 H          2.1596716316        0.8394693008        3.6553169504
 H          1.5050150326        1.6595748390        1.4165418247
 H          3.9895999530        0.4196588380       -2.4820173167
 H          4.0889219735       -1.9654289408       -2.4505609838
 H          3.1596648195       -4.0585974153       -1.5373314552
 H          1.2019568438       -4.0186687127       -0.0613324719
 H          0.1440500581       -1.1745250949        1.6716988185
 C         -0.7089857711       -3.0820783847        1.3377388458
 C         -2.1583825257       -3.2803455311        1.6642255271
 C         -1.5416666059       -4.0178197290        0.5155205067
 H         -1.3744423864       -5.0798316582        0.6215619186
 H         -1.7903880159       -3.7112048650       -0.4879372347
 H         -2.4134402478       -3.8318537043        2.5568167851
 H         -2.8369872228       -2.4688030413        1.4431622422
 H         -0.0016152522       -3.5388696820        2.0229140146
