  62
        -98.93715080
 C         -1.9488125734       -0.1163999016       -0.3904232501
 C         -2.8101753858        0.7321111825        0.3438223147
 C         -4.1637264444        0.2141673928        0.6258969847
 C         -4.5107811522       -1.0152253052        0.2046825687
 C         -5.7854031295       -1.8124386875        0.3884742027
 C         -7.0722490921       -1.1350341530        0.8529048452
 C         -7.6705116233       -0.1445205519       -0.1454161901
 H         -8.0457641371       -0.7031522998       -1.0066730485
 H         -8.5232256407        0.3455450056        0.3296478712
 C         -6.7131477981        0.9224919262       -0.6704709769
 H         -5.9104991308        0.4475380023       -1.2385178053
 H         -7.2687861658        1.5553251384       -1.3679644420
 C         -6.0989631272        1.8305802896        0.3930848306
 H         -5.5733220455        2.6357296589       -0.1271083025
 H         -6.8916193836        2.2817358242        0.9930227467
 C         -5.0906138578        1.1562031575        1.3394027084
 H         -5.5938037413        0.6508012503        2.1600132756
 H         -4.4601433696        1.9379564497        1.7724610092
 H         -7.8047719759       -1.9324950252        1.0052727059
 H         -6.9209999807       -0.6592483302        1.8173344412
 H         -5.9673410064       -2.3053733043       -0.5719360907
 H         -5.5372619056       -2.6083707950        1.0995573318
 O         -3.6363322813       -1.8095562564       -0.4808860798
 C         -2.3625094886       -1.3849616534       -0.8039320037
 O         -1.7009722040       -2.2157991604       -1.4600105237
 O         -2.4892826250        1.8738554362        0.7661167586
 C         -0.5357237889        0.2699123560       -0.7979896257
 C          0.4497647677        0.0553295405        0.3258434396
 C          0.3241411290        0.7175365625        1.5433029115
 C          1.2422822330        0.5036019352        2.5543570502
 C          2.3138795301       -0.3521663528        2.3654277433
 C          2.4523809673       -1.0128291907        1.1515323696
 C          1.5162778615       -0.8132770272        0.1453694902
 H          1.6312158151       -1.3455117111       -0.7870166073
 N          3.5381235549       -1.8804545656        0.9185858140
 S          4.5428409047       -1.5477260394       -0.3792421739
 O          3.8174847670       -1.6922781243       -1.6145860481
 O          5.6877085929       -2.4115170728       -0.1977786843
 C          5.0219684887        0.1537104501       -0.1349102920
 C          6.1977454668        0.4235752983        0.5381469931
 C          6.5365198092        1.7421327208        0.7953316561
 C          5.6911340918        2.7631837636        0.3881611870
 C          4.5127523205        2.4755836925       -0.2832472566
 C          4.1715329630        1.1591547982       -0.5505918758
 H          3.2637926524        0.9026836094       -1.0716503348
 H          3.8533081905        3.2681420391       -0.5983527066
 H          5.9515891231        3.7894698551        0.5936182820
 H          7.4539801170        1.9687816890        1.3141824151
 H          6.8254957728       -0.4016686251        0.8334008027
 H          4.0982458523       -2.0584704850        1.7408227858
 H          3.0344115143       -0.5132562488        3.1531774061
 H          1.1282910672        1.0162060864        3.4973454349
 H         -0.5062370163        1.3905792629        1.6903307309
 H         -0.2667830781       -0.4218733004       -1.6084771689
 C         -0.4328124461        1.6868690337       -1.3299720190
 C          0.6455499576        2.0135662241       -2.3168361479
 C         -0.7854862444        1.9564200932       -2.7600289186
 H         -1.2915745934        2.8791186609       -3.0007226403
 H         -1.0989166994        1.1167171927       -3.3640695537
 H          1.1252910819        2.9784035672       -2.2583574642
 H          1.2995356234        1.2125736792       -2.6310607324
 H         -0.7006182947        2.4409654915       -0.6021278412
