  62
        -98.94485322
 C          2.0524467124        1.0179616556        0.4803169060
 C          2.0824142957        0.2095323983       -0.6822994472
 C          2.7565900594       -1.0869654864       -0.5374696447
 C          3.2351202321       -1.4641879101        0.6614579483
 C          3.9235740223       -2.7654768472        0.9726632127
 C          5.4216062683       -2.7764040729        0.6373508065
 C          5.7555356576       -2.8293117316       -0.8539859173
 H          6.8207544867       -3.0543682519       -0.9350742541
 H          5.2120134904       -3.6534567677       -1.3169491425
 C          5.4666145772       -1.5276262768       -1.6145393639
 H          5.3561612619       -0.7067544771       -0.9023555725
 H          6.3168746384       -1.2842370597       -2.2553858301
 C          4.2263403448       -1.5771568880       -2.5068880124
 H          4.0949558556       -0.5946937392       -2.9669808387
 H          4.3776832996       -2.3063731251       -3.3057181363
 C          2.9300468542       -1.9288664810       -1.7650583204
 H          2.9182942525       -2.9872698072       -1.5047579525
 H          2.0844172264       -1.7240943199       -2.4264296926
 H          5.8850269220       -1.8937144176        1.0839488058
 H          5.8545039783       -3.6576084870        1.1163676033
 H          3.4232376800       -3.5783153775        0.4450651427
 H          3.8092036096       -2.9280654964        2.0467791659
 O          3.1221484132       -0.6863814759        1.7724242441
 C          2.5386084933        0.5686213387        1.7069456058
 O          2.5028465251        1.1750427143        2.7990178489
 O          1.5787926239        0.5493335391       -1.7834492743
 C          1.3914028557        2.3859673121        0.4419961471
 C         -0.0792077571        2.2018954022        0.1551111928
 C         -0.7476274625        2.8024414377       -0.9024232333
 C         -2.0912169943        2.5451699742       -1.1179547789
 C         -2.7937538627        1.6904925400       -0.2882261435
 C         -2.1347041412        1.0902685788        0.7769585802
 C         -0.7935731919        1.3536525512        0.9936814148
 H         -0.2798810352        0.8783123347        1.8218712969
 N         -2.8470050245        0.1982899292        1.6180662889
 S         -3.1042789392       -1.3168239274        0.9208916225
 O         -3.4365430506       -2.1945616010        2.0227087641
 O         -1.9813949912       -1.7185916434        0.1017958596
 C         -4.5451295072       -1.0606217818       -0.0898605736
 C         -5.7523040922       -0.8317491014        0.5416582590
 C         -6.8798769276       -0.6105994483       -0.2328173375
 C         -6.7806464740       -0.6222824623       -1.6164117711
 C         -5.5614594084       -0.8564164470       -2.2342882155
 C         -4.4291172648       -1.0779688760       -1.4657137040
 H         -3.4582419772       -1.2570158330       -1.8997655454
 H         -5.4860565135       -0.8647398536       -3.3097291612
 H         -7.6589403701       -0.4478632454       -2.2176454260
 H         -7.8297937364       -0.4290695865        0.2434790270
 H         -5.7818997724       -0.8371455836        1.6184274409
 H         -2.3829237346        0.0569237690        2.5058770068
 H         -3.8397796688        1.4894493602       -0.4518190960
 H         -2.5972760482        3.0154097771       -1.9469788897
 H         -0.2136354161        3.4624252556       -1.5657579831
 H          1.4890305042        2.7981314313        1.4569774120
 C          2.1001479391        3.3035530282       -0.5302961014
 C          2.0103512493        4.7890966444       -0.3564111260
 C          3.2940747852        4.0758585424       -0.0586897560
 H          4.1259773987        4.2025436167       -0.7350421640
 H          3.5872094324        3.9556741588        0.9744408847
 H          1.9633452992        5.4097911835       -1.2381664190
 H          1.4325783053        5.1601402255        0.4765184779
 H          2.1296373349        2.9041311284       -1.5369710174
