  62
        -98.94037160
 C          1.4721587014        1.2264785458        0.2762345934
 C          1.5703513950       -0.1861526828        0.3740609600
 C          2.7652540609       -0.8019249741       -0.2154611978
 C          3.6838004355       -0.0141019335       -0.8029633217
 C          4.9783551367       -0.4968807042       -1.3891192411
 C          6.1025736754       -0.4797999521       -0.3438548525
 C          5.7265594172       -1.1457323503        0.9798897017
 H          6.6045045604       -1.0993526106        1.6280233693
 H          4.9404469530       -0.5604044013        1.4624425435
 C          5.2636393064       -2.6034897983        0.8486144107
 H          5.7537703961       -3.1974653489        1.6229808215
 H          5.5776217221       -3.0060567887       -0.1150823627
 C          3.7566765176       -2.8066736127        1.0163767199
 H          3.4228810615       -2.3242689090        1.9384824212
 H          3.5688120367       -3.8785698349        1.1207180764
 C          2.8835436656       -2.2978294462       -0.1373498556
 H          3.2507197583       -2.7034391792       -1.0821796027
 H          1.8666818831       -2.6648658506        0.0270399658
 H          6.9763300360       -0.9777134690       -0.7683008488
 H          6.3701741125        0.5596483646       -0.1399595017
 H          4.8422934654       -1.5055788461       -1.7743713929
 H          5.2512513056        0.1641542131       -2.2133542823
 O          3.5531383552        1.3326738028       -0.8882062495
 C          2.4422116607        1.9923975222       -0.3702604738
 O          2.4640563143        3.2225742703       -0.5557966589
 O          0.6957580081       -0.8957430410        0.9369528028
 C          0.2192165817        1.8452001702        0.8702858966
 C         -0.8840282419        1.8136867815       -0.1556365285
 C         -0.7086734144        2.3852340538       -1.4131588788
 C         -1.7220191527        2.3329852062       -2.3515820203
 C         -2.9176162950        1.6969440810       -2.0635458937
 C         -3.0981679165        1.1154426939       -0.8143662556
 C         -2.0838877440        1.1821238216        0.1324118838
 H         -2.2385597413        0.7284525461        1.0994341886
 N         -4.2989389911        0.4701099699       -0.4935395398
 S         -4.3115277411       -0.8579866972        0.5177138056
 O         -5.5602102372       -1.5223796917        0.2072603328
 O         -4.1553976184       -0.4384542716        1.8881154291
 C         -2.9470104862       -1.8942850089        0.0215821420
 C         -2.7731455886       -2.1664549073       -1.3210624675
 C         -1.7404193526       -3.0053270435       -1.7043646175
 C         -0.9110577511       -3.5644689277       -0.7442934663
 C         -1.1024100420       -3.2863464235        0.5988864316
 C         -2.1282011033       -2.4402944220        0.9870002141
 H         -2.2978754786       -2.1868767542        2.0210234916
 H         -0.4518554113       -3.7115350413        1.3456751447
 H         -0.1080027321       -4.2187376223       -1.0467307724
 H         -1.5839365544       -3.2206615568       -2.7494111056
 H         -3.4377202761       -1.7275955291       -2.0475619548
 H         -4.9594447688        0.3809301133       -1.2510936429
 H         -3.7061500721        1.6521544142       -2.7990957262
 H         -1.5779693251        2.7852748053       -3.3211715279
 H          0.2291867859        2.8701895773       -1.6405716804
 H         -0.0757272058        1.1621554142        1.6834095615
 C          0.4337015775        3.2176101260        1.4900439292
 C         -0.1818354442        4.4745130033        0.9599224389
 C         -0.6922989592        3.8744450519        2.2332551109
 H         -0.4785880437        4.3722502943        3.1670227819
 H         -1.6548178636        3.3843862384        2.2047210634
 H          0.4085966425        5.3766375188        1.0094117589
 H         -0.8059667452        4.4117133963        0.0827450417
 H          1.4236537954        3.3185457844        1.9223766713
