  62
        -98.92465789
 C         -2.4621381515       -1.3858606122       -0.1827803585
 C         -2.1356090822       -0.0777287556       -0.6132297206
 C         -3.2586961868        0.8777196937       -0.7181766363
 C         -4.5075195925        0.4772956265       -0.4189839561
 C         -5.8323697138        1.2090396871       -0.4780180834
 C         -5.8801320227        2.7313774796       -0.5808446329
 C         -5.3555523504        3.4737610213        0.6474975279
 H         -6.0475882768        3.3075229329        1.4767490107
 H         -5.3538360631        4.5428367019        0.4242896199
 C         -3.9629585868        3.0645625976        1.1215071127
 H         -3.9777705478        2.0245987481        1.4541931866
 H         -3.7125487587        3.6763366160        1.9924552406
 C         -2.8444745536        3.2395143407        0.0955351356
 H         -1.8935503170        3.0707291263        0.6094197576
 H         -2.8434941083        4.2657864088       -0.2772137038
 C         -2.8907498727        2.2805042344       -1.1072630506
 H         -1.8837766621        2.2276062486       -1.5325944977
 H         -3.5547121668        2.6503998819       -1.8852426785
 H         -6.9326183463        3.0009052226       -0.7038686076
 H         -5.3628476018        3.0653298139       -1.4753613907
 H         -6.3840848964        0.8932498412        0.4129176631
 H         -6.3666504759        0.7878594190       -1.3367620620
 O         -4.7738499291       -0.8028631301       -0.0246625986
 C         -3.7761423093       -1.7475647872        0.1166981515
 O         -4.1802090013       -2.8606504920        0.5113430101
 O         -0.9719100180        0.2970128395       -0.9061455446
 C         -1.4082139956       -2.4736744925       -0.0021452941
 C         -0.3290965964       -1.9689033843        0.9234405305
 C         -0.6105295497       -2.0246806396        2.2892215429
 C          0.2786977720       -1.5349659241        3.2248328336
 C          1.4776986822       -0.9753540754        2.8212671251
 C          1.7756039928       -0.9169056227        1.4656687686
 C          0.8771122271       -1.4113171985        0.5279517647
 H          1.1313015737       -1.3038864340       -0.5087408169
 N          3.0170647323       -0.4018850643        1.0435949193
 S          3.1505162571        0.6064734091       -0.3046318587
 O          2.4637418172        1.8575376232       -0.0681057514
 O          2.8025278497       -0.1235860329       -1.4944580672
 C          4.9148154405        0.8730404317       -0.2737916822
 C          5.4256559388        2.0675684202        0.1958106587
 C          6.8005414898        2.2420523438        0.2314673945
 C          7.6368241282        1.2228766794       -0.1977101647
 C          7.1094989952        0.0289460836       -0.6674905532
 C          5.7361756347       -0.1503561087       -0.7071170491
 H          5.2806966647       -1.0560116408       -1.0721785472
 H          7.7626672910       -0.7604386640       -1.0029251651
 H          8.7061505808        1.3605773784       -0.1685628673
 H          7.2130166475        3.1702259678        0.5930074643
 H          4.7368227466        2.8344922712        0.5120048763
 H          3.5205878638        0.0258151855        1.8106916605
 H          2.1752424816       -0.5870793861        3.5483858995
 H          0.0354673210       -1.5838328298        4.2756439344
 H         -1.5530798242       -2.4493148489        2.6083518141
 H         -1.9350437666       -3.2700590624        0.5480503071
 C         -1.0499400821       -3.1022569672       -1.3423005014
 C         -0.2228404670       -2.4822847132       -2.4264258233
 C          0.2898589720       -3.6804227715       -1.6839652783
 H          0.3169887010       -4.6275278025       -2.2023618524
 H          1.0977924161       -3.5385812208       -0.9838748578
 H         -0.5599026398       -2.6202638510       -3.4447818980
 H          0.2239240208       -1.5151092545       -2.2608344176
 H         -1.9086763723       -3.6670286310       -1.7008520231
