  62
        -98.93878981
 C         -1.4482746511       -1.2774329572       -0.6679179713
 C         -2.7546709852       -1.2026225907       -0.1206657949
 C         -3.5859991870       -0.0556491821       -0.5181455208
 C         -3.0788034765        0.8582100080       -1.3627269405
 C         -3.7404459090        2.0856064299       -1.9393968148
 C         -4.6265963132        2.9205182408       -1.0076173407
 C         -4.1418921887        2.9953495014        0.4476684505
 H         -3.1293720284        2.5935927271        0.5274731492
 H         -4.0979222666        4.0422480972        0.7544930191
 C         -5.0636248087        2.2582426915        1.4221869185
 H         -6.1002649412        2.4859909420        1.1641813812
 H         -4.8850339041        2.6405958151        2.4301176059
 C         -4.8823440432        0.7419668969        1.4746442943
 H         -3.9197380061        0.5009384205        1.9348843470
 H         -5.6595982478        0.3327118396        2.1245946222
 C         -4.9441594213        0.0206929006        0.1182983836
 H         -5.2472458140       -1.0137009748        0.3022643416
 H         -5.6734322425        0.4837364799       -0.5418961872
 H         -5.6438387534        2.5320436225       -1.0247971503
 H         -4.6666980449        3.9260684258       -1.4301551357
 H         -2.9172289762        2.7025798610       -2.3085702616
 H         -4.3273080458        1.7771147298       -2.8099241544
 O         -1.8204540618        0.7489960984       -1.8689562824
 C         -0.9704538484       -0.2932680430       -1.5312431480
 O          0.1433981639       -0.2159401813       -2.0849565854
 H          1.2602407574       -0.4998070146        0.0412532729
 C          1.1036294102       -1.0276391325        0.9670420957
 C          0.1880189488       -2.0707767659        1.0144477955
 C         -0.0135633361       -2.7347106656        2.2181962029
 C          0.6759327606       -2.3513476865        3.3548285430
 C          1.5618264703       -1.2914626377        3.3124608850
 C          1.7724886229       -0.6194756328        2.1113653776
 N          2.6737795361        0.4493828596        2.0573432668
 S          2.5166479408        1.7456054346        1.0069481917
 O          3.1176037495        2.8503973088        1.7284766180
 O          1.1502148459        1.9350749449        0.5837604611
 C          3.5977468016        1.3102307245       -0.3387859360
 C          4.9559923375        1.3580630732       -0.0837423673
 C          5.8428711479        1.0154128706       -1.0898348426
 C          5.3594748723        0.6308928315       -2.3320826893
 C          3.9955499342        0.5901307106       -2.5719112582
 C          3.1004134243        0.9329303340       -1.5684175174
 H          2.0343360084        0.8961106569       -1.7334129965
 H          3.6124509865        0.2901815038       -3.5344302187
 H          6.0481769280        0.3626760403       -3.1178226095
 H          6.9044800696        1.0483485954       -0.9049660273
 H          5.2874557777        1.6753651708        0.8909491043
 H          3.0488338046        0.7348693691        2.9494775521
 H          2.0857516979       -0.9771980008        4.2024483940
 H          0.5104237437       -2.8721537506        4.2857779598
 H         -0.7326015692       -3.5391928692        2.2640015899
 C         -0.5984694514       -2.4544784862       -0.2175437567
 H         -1.3178325577       -3.2307217232        0.0788320928
 C          0.3072188253       -3.0267894385       -1.2879345734
 C          0.7602150558       -4.4499943602       -1.1666992964
 C         -0.2304701410       -4.0657995675       -2.2236112092
 H          0.0904900165       -4.0442422416       -3.2540150979
 H         -1.2591623619       -4.3697867808       -2.0943071724
 H          1.7659455434       -4.6963392279       -1.4699787249
 H          0.4030008333       -5.0191403856       -0.3218723856
 H          1.0062265608       -2.3084178775       -1.6943688292
 O         -3.2181224694       -2.0774884138        0.6599904516
