  62
        -98.94825094
 C         -1.1802617806       -1.2174214517       -0.0197641144
 C         -1.9141887356       -0.6478194000        1.0475748948
 C         -2.5532474080        0.6457690410        0.7711665127
 C         -2.4001177423        1.2094817240       -0.4409667020
 C         -3.0328637124        2.5002671780       -0.8721923057
 C         -4.4002954474        2.2586706939       -1.5267534352
 C         -5.3221195706        1.3501623760       -0.7135395295
 H         -6.2674001621        1.2763283434       -1.2553573385
 H         -4.8927655444        0.3463984742       -0.6768728312
 C         -5.5906727289        1.8364835401        0.7174641537
 H         -5.3384100964        2.8940096157        0.8040293408
 H         -6.6580980364        1.7396688830        0.9265434545
 C         -4.8526285471        1.0509376423        1.8032602720
 H         -5.0282193810       -0.0190960760        1.6657675659
 H         -5.2751350944        1.3294276646        2.7724605837
 C         -3.3381881199        1.2831606224        1.8824114956
 H         -3.1300889996        2.3543232026        1.9357270654
 H         -2.9767613561        0.8219949635        2.8067509604
 H         -4.8835999626        3.2248650777       -1.6819992907
 H         -4.2400758730        1.7968918666       -2.5035148926
 H         -3.1413859383        3.1507035247       -0.0062839696
 H         -2.3736478915        2.9845291568       -1.5946282019
 O         -1.6776412361        0.6384054792       -1.4376507632
 C         -1.0390568934       -0.5820803131       -1.2526226405
 O         -0.3955300606       -0.9774938048       -2.2411258696
 H          1.0264191812       -0.7410700825        1.4457843777
 C          1.6237651893       -1.3619157065        0.7932914013
 C          1.0138288144       -2.3672006385        0.0509858813
 C          1.8054636763       -3.1640008716       -0.7654500920
 C          3.1703318760       -2.9473766450       -0.8436157263
 C          3.7707025498       -1.9383673976       -0.1143760061
 C          2.9893032120       -1.1410750185        0.7152917292
 N          3.5786881628       -0.1279041124        1.4933430314
 S          2.9052781601        1.4004824993        1.5309379294
 O          3.9375078110        2.2295199780        2.1151209088
 O          1.6412072422        1.3779210875        2.2211615790
 C          2.6785491536        1.8372358964       -0.1807370438
 C          3.7826569939        2.2215810232       -0.9168876001
 C          3.6235616918        2.5009596591       -2.2639688517
 C          2.3721278644        2.3826672080       -2.8504372106
 C          1.2735404018        1.9997982237       -2.0971998848
 C          1.4273473696        1.7234699501       -0.7482212213
 H          0.5974367528        1.4209814731       -0.1281893360
 H          0.3010725909        1.8909540778       -2.5506333902
 H          2.2485696895        2.5903794164       -3.9015699370
 H          4.4733110603        2.8042930649       -2.8540624813
 H          4.7353200822        2.3108808531       -0.4203988145
 H          4.5818896114       -0.0647146430        1.3922801034
 H          4.8349126605       -1.7698744612       -0.1772594765
 H          3.7735126737       -3.5706756799       -1.4858428057
 H          1.3544977048       -3.9532097221       -1.3435476978
 C         -0.4780060366       -2.5453762877        0.1953289483
 H         -0.6842103204       -2.8168368108        1.2417839513
 C         -1.0600283671       -3.6117356921       -0.7083285937
 C         -1.0073042579       -5.0533921447       -0.3023832510
 C         -2.3117470484       -4.3164425623       -0.2821354060
 H         -3.0519021681       -4.5526825517       -1.0319282712
 H         -2.7327765954       -4.0444763234        0.6751017985
 H         -0.8543228394       -5.7998109815       -1.0670407481
 H         -0.5445789102       -5.2891321903        0.6440386860
 H         -0.9573323649       -3.3695310712       -1.7599238602
 O         -2.0287836112       -1.1957501234        2.1779834613
