  62
        -98.93358911
 C         -2.6206255371       -1.1799334469        0.2866782235
 C         -2.5752601620       -0.2788833821       -0.8049253434
 C         -3.4427991918        0.9098415099       -0.7037509025
 C         -4.2048647155        1.0880354604        0.3877500812
 C         -5.1818675847        2.1998175907        0.6765664779
 C         -4.7328926771        3.6333961263        0.3566317520
 C         -3.2266494036        3.8941846393        0.5050259085
 H         -3.0808609817        4.7862556745        1.1173102443
 H         -2.7509301432        3.0616755168        1.0269038194
 C         -2.5247537167        4.1263103466       -0.8356196279
 H         -3.1518873837        4.7771614708       -1.4487410445
 H         -1.5861509760        4.6549629142       -0.6526196623
 C         -2.1861268085        2.8654440052       -1.6304839952
 H         -1.3787950450        2.3182405972       -1.1355193933
 H         -1.8079079628        3.1756611160       -2.6073137641
 C         -3.3503208985        1.8839723357       -1.8426161619
 H         -4.2882646832        2.4113048939       -1.9986145378
 H         -3.1293844703        1.2900652123       -2.7334633522
 H         -5.0377174968        3.8927908001       -0.6563030558
 H         -5.2835737568        4.2934578204        1.0288953441
 H         -6.1097159097        1.9870127080        0.1379632073
 H         -5.4019164838        2.1140843378        1.7434037608
 O         -4.2003462582        0.2051477354        1.4275747803
 C         -3.4008513048       -0.9249214817        1.4152340700
 O         -3.4659658361       -1.6086093920        2.4575161514
 H         -0.2182222191       -0.5329515408        1.3708715641
 C          0.3062871877       -1.0496471745        0.5744706362
 C         -0.3428016226       -2.0754769786       -0.1032809443
 C          0.3418024552       -2.7335524063       -1.1154523762
 C          1.6333237163       -2.3594253692       -1.4446689846
 C          2.2669879821       -1.3261918773       -0.7804302271
 C          1.5936602846       -0.6633134176        0.2377300769
 N          2.2206428285        0.4043903045        0.9054805459
 S          3.7601548022        0.1545343216        1.5269347040
 O          3.9628683297       -1.2272959976        1.8974605371
 O          3.9017477896        1.1297125521        2.5865849487
 C          4.8447528157        0.5943743905        0.1857086728
 C          4.6892856126        1.8367573730       -0.3972301704
 C          5.5331864720        2.1985492809       -1.4350355228
 C          6.5147950576        1.3188178962       -1.8669089247
 C          6.6602467063        0.0766326340       -1.2685499259
 C          5.8183436904       -0.2922661586       -0.2307718120
 H          5.8890402621       -1.2499359046        0.2597961929
 H          7.4238937316       -0.6055965912       -1.6058489368
 H          7.1699955636        1.6033746052       -2.6750040553
 H          5.4223051759        3.1632760319       -1.9034186341
 H          3.9157348773        2.4912019671       -0.0312166578
 H          1.6323254750        0.8557881516        1.5907436765
 H          3.2684337940       -1.0262298835       -1.0424156390
 H          2.1511012047       -2.8755957742       -2.2386779820
 H         -0.1417486791       -3.5255392879       -1.6627809297
 C         -1.7477201862       -2.4222578570        0.3288595863
 H         -1.7053521272       -2.7013604612        1.3956589209
 C         -2.3288705818       -3.6213753127       -0.4057209470
 C         -3.8069060214       -3.7588681978       -0.6144566607
 C         -2.9048691368       -3.5125658487       -1.7843578948
 H         -2.7335251400       -4.3242944242       -2.4762278913
 H         -2.9101118277       -2.5378765111       -2.2450558835
 H         -4.2504548216       -4.7366350234       -0.4996762664
 H         -4.4388090433       -2.9515010707       -0.2730760568
 H         -1.7937345307       -4.5363751964       -0.1704024632
 O         -1.8569792636       -0.4456389279       -1.8223650672
