  62
        -98.94452772
 C          1.2792136133        1.7656712469       -0.6796195449
 C          2.4726231353        1.6456784584        0.0791181463
 C          3.4050404075        0.5920874144       -0.3296276514
 C          3.1213089954       -0.1645287738       -1.4046758043
 C          3.9488070885       -1.3049859166       -1.9303080810
 C          3.6589421068       -2.6336989989       -1.2178916958
 C          4.2242142051       -2.7439067519        0.1989539350
 H          4.1571222962       -3.7946250825        0.4883703716
 H          5.2808644720       -2.4725749496        0.1922600078
 C          3.4782251810       -1.9002302759        1.2426339881
 H          2.4939357606       -1.6269741526        0.8520361837
 H          3.3017109865       -2.5032506262        2.1369415886
 C          4.2186443712       -0.6380897107        1.6885527373
 H          5.1328503710       -0.9198255926        2.2164261776
 H          3.5765304216       -0.0972011659        2.3887728727
 C          4.5879497399        0.3211045601        0.5492044389
 H          4.9017707743        1.2708230882        0.9895580459
 H          5.4132511241       -0.0857286372       -0.0345221802
 H          2.5762096538       -2.7842409672       -1.1852890643
 H          4.0906260314       -3.4338775646       -1.8241629917
 H          3.6956013407       -1.4167467186       -2.9868028739
 H          5.0094109279       -1.0660013340       -1.8479216990
 O          2.0122213182        0.0348734415       -2.1581533955
 C          1.0273280243        0.9431333280       -1.7783171321
 O          0.0247178589        0.9140696738       -2.5157246521
 O          2.7351146568        2.3843536537        1.0667626752
 C          0.2411995234        2.7239152347       -0.1211517508
 C         -0.4648520154        2.0595890187        1.0385505873
 C         -0.8290445746        2.7674564007        2.1777276595
 C         -1.4484177613        2.1210619147        3.2336562547
 C         -1.6997999033        0.7617104477        3.1842344184
 C         -1.3225196840        0.0402655961        2.0555094395
 C         -0.7325380738        0.6999480160        0.9886958521
 H         -0.4337792642        0.1327272655        0.1233107249
 N         -1.4948181727       -1.3442277972        1.9997425721
 S         -1.4798166267       -2.2460772122        0.5986884986
 O         -1.8235214995       -3.5771218281        1.0529713807
 O         -0.2156223554       -2.1184993811       -0.0807257880
 C         -2.8310560005       -1.6086069708       -0.3745315369
 C         -2.6166549903       -0.8432034280       -1.5013868080
 C         -3.7163199555       -0.3656401133       -2.2002471259
 C         -4.9990043077       -0.6529685712       -1.7637694887
 C         -5.1973964305       -1.4259585275       -0.6288043613
 C         -4.1055785515       -1.9084428163        0.0716421196
 H         -4.2152127779       -2.5290655304        0.9460450590
 H         -6.1958700396       -1.6526704685       -0.2912946838
 H         -5.8472659016       -0.2748162351       -2.3121667183
 H         -3.5515176002        0.2331648974       -3.0815374178
 H         -1.6136620446       -0.6140408653       -1.8275993733
 H         -2.0241857794       -1.7654954450        2.7460448616
 H         -2.1615033226        0.2562165896        4.0181935298
 H         -1.7274269236        2.6802922211        4.1137418629
 H         -0.6004752739        3.8207018109        2.2459836612
 H          0.8138801511        3.5712561511        0.2902861178
 C         -0.7226850794        3.2790650320       -1.1569635897
 C         -2.1335801039        2.7990316062       -1.2913254649
 C         -1.8602508113        4.1663513548       -0.7453346344
 H         -2.0887274362        5.0233819125       -1.3604483251
 H         -2.0210312257        4.3228419596        0.3098433953
 H         -2.5355761895        2.7038157160       -2.2875725100
 H         -2.4743744116        2.0324322702       -0.6119303961
 H         -0.2147185088        3.5373982794       -2.0798876384
