  62
        -98.93853137
 C         -2.0237176994       -0.3782982159        0.5867176867
 C         -1.4920240211        0.7153059467        1.3152721891
 C         -1.5821675694        2.0355049005        0.6813265850
 C         -2.1369496790        2.1479588056       -0.5379809109
 C         -2.3430744904        3.4192205443       -1.3172254544
 C         -1.0573999729        4.1172739960       -1.8024408607
 C         -0.5562356358        5.2275496352       -0.8702165898
 H         -0.1985533391        6.0609577065       -1.4782744180
 H         -1.3988061585        5.6028248907       -0.2876058326
 C          0.5854589686        4.8391643749        0.0738912692
 H          1.5238622466        4.8323800681       -0.4859094383
 H          0.6635812142        5.6117417205        0.8422748800
 C          0.4549356180        3.4748920208        0.7511934173
 H          0.6710333033        2.6877689850        0.0227272218
 H          1.2265190769        3.4061992729        1.5216979366
 C         -0.9262632001        3.1929875992        1.3773238308
 H         -1.5582973739        4.0786809544        1.3292936960
 H         -0.8100989724        2.9071588315        2.4249104793
 H         -0.2803766697        3.3683256964       -1.9626877447
 H         -1.2823046592        4.5614726156       -2.7737081359
 H         -2.9443959473        3.1367484765       -2.1838190175
 H         -2.9301612048        4.1142789928       -0.7124572796
 O         -2.6203740357        1.0745864572       -1.2157233412
 C         -2.5122725380       -0.2143802759       -0.7112571119
 O         -2.8988849456       -1.0919870810       -1.5057975091
 O         -0.9505200377        0.5916961019        2.4477670357
 C         -1.8139781087       -1.7721698189        1.1617107450
 C         -1.0017674930       -2.5472735700        0.1551383331
 C         -1.4114743411       -3.7110585091       -0.4774239238
 C         -0.6254673813       -4.2681109925       -1.4732579648
 C          0.5556893566       -3.6697715267       -1.8718224339
 C          0.9786650222       -2.5072748056       -1.2334859783
 C          0.2189891528       -1.9879906740       -0.2023634691
 H          0.5406484660       -1.0858958329        0.2921425957
 N          2.1650130686       -1.8620114763       -1.6032304927
 S          2.4373828478       -0.2386867222       -1.3020221365
 O          1.2324357814        0.5565596474       -1.3549829533
 O          3.4709070402        0.1195877701       -2.2516941148
 C          3.1492216898       -0.2508585833        0.3309817514
 C          2.4870572234        0.2960190228        1.4105994270
 C          3.0813752426        0.2368839969        2.6621308930
 C          4.3217411029       -0.3620670283        2.8125485940
 C          4.9785239847       -0.9022790896        1.7165342587
 C          4.3885850102       -0.8479733796        0.4650705388
 H          4.8667271060       -1.2467624477       -0.4139778663
 H          5.9445359183       -1.3658859745        1.8350468502
 H          4.7775562345       -0.4067247103        3.7890674832
 H          2.5601270543        0.6544735057        3.5088544927
 H          1.5184925200        0.7524855578        1.2762367095
 H          2.5871590341       -2.1782217936       -2.4625665436
 H          1.1408693828       -4.0871738556       -2.6770325574
 H         -0.9542152612       -5.1694532730       -1.9684548872
 H         -2.3569269981       -4.1598277580       -0.2200997669
 H         -1.1803044741       -1.6005960182        2.0482989086
 C         -3.0564506677       -2.4895258158        1.6579671288
 C         -4.2393008387       -1.7153887976        2.1568503663
 C         -4.3487065906       -2.5248302518        0.9011889138
 H         -4.9289037983       -3.4358413501        0.9321304454
 H         -4.3916164981       -2.0110486893       -0.0452391170
 H         -4.7483182895       -2.0627175530        3.0433786511
 H         -4.2016118282       -0.6392723636        2.0646502356
 H         -2.8015241849       -3.3863061427        2.2150784203
