  62
        -98.94327262
 C          1.3117757310        1.0033883710       -0.0103589800
 C          1.8086801486       -0.0842513088        0.7475641657
 C          2.7648598899       -0.9627493615        0.0602282562
 C          3.0869214773       -0.7088419910       -1.2213940468
 C          4.0824723994       -1.4934509430       -2.0250852218
 C          5.4909595272       -0.8955058380       -1.9025568909
 C          5.9228015649       -0.6229114511       -0.4616742749
 H          6.9419530031       -0.2318929593       -0.4967311520
 H          5.2911616580        0.1641983506       -0.0436033927
 C          5.8775462527       -1.8511629874        0.4581169757
 H          5.8518439797       -2.7620170992       -0.1412598350
 H          6.7950933287       -1.8790679205        1.0496340090
 C          4.7098653401       -1.8606728612        1.4463174366
 H          4.8953273334       -2.6468566704        2.1829646611
 H          4.6785004294       -0.9095227110        1.9835039979
 C          3.3244614078       -2.1188047925        0.8405696813
 H          2.6274980527       -2.2854549735        1.6670446673
 H          3.3539565764       -3.0215771802        0.2269177633
 H          6.1985189385       -1.5803652290       -2.3736338704
 H          5.5152518993        0.0484687027       -2.4520626548
 H          3.7765675686       -1.4676661254       -3.0725141561
 H          4.0848513854       -2.5268665748       -1.6833932132
 O          2.5668643945        0.3290404696       -1.9262334198
 C          1.6702565556        1.2145317162       -1.3415139637
 O          1.2703876317        2.1168443766       -2.1009352138
 O          1.4637979186       -0.3114630167        1.9367539315
 C          0.3212310567        1.9463496492        0.6408860029
 C         -1.0192082332        1.9164951084       -0.0525201608
 C         -1.8851295146        3.0044120809       -0.0440788477
 C         -3.1377593885        2.9174938828       -0.6271629734
 C         -3.5597060012        1.7457894281       -1.2302716360
 C         -2.7000051989        0.6581495174       -1.2512671600
 C         -1.4489572999        0.7449803391       -0.6606880180
 H         -0.7936164420       -0.1177176937       -0.6719389115
 N         -3.1428780153       -0.5624481091       -1.8251946782
 S         -4.0977141653       -1.4549549754       -0.7705282922
 O         -4.2633537058       -2.7549894484       -1.3799421166
 O         -5.3013143151       -0.7092079382       -0.5088331879
 C         -3.1079042426       -1.5782288501        0.7071284736
 C         -2.1992927694       -2.6123428043        0.8134887665
 C         -1.3349605610       -2.6368933654        1.8957825185
 C         -1.3815984421       -1.6229196396        2.8398255890
 C         -2.3000734445       -0.5919790231        2.7181787619
 C         -3.1712248208       -0.5636588799        1.6411473334
 H         -3.8946932424        0.2245230266        1.5083354748
 H         -2.3301099013        0.1974171455        3.4519203726
 H         -0.6869312652       -1.6288244460        3.6642274228
 H         -0.6161591133       -3.4348692859        1.9927083616
 H         -2.1896647799       -3.3780871689        0.0535028689
 H         -2.3767523760       -1.1478591929       -2.1297124143
 H         -4.5386882493        1.6509671547       -1.6704302917
 H         -3.7957599430        3.7727666564       -0.6090530848
 H         -1.5774530882        3.9244401808        0.4257791839
 H          0.1734297431        1.5498920644        1.6578426983
 C          0.9017856510        3.3431061835        0.7439739700
 C          0.6047491615        4.2085454011        1.9312119809
 C          1.9665339474        3.6067271383        1.7653205604
 H          2.7907963740        4.2507989488        1.4980132783
 H          2.2453428322        2.7869478085        2.4113820038
 H          0.4948525282        5.2717647648        1.7788253723
 H         -0.0333644012        3.8030162875        2.7017038928
 H          1.0093519120        3.8193329333       -0.2240999448
