  62
        -98.94389825
 C          1.8305979461        0.3716962621       -1.0350858232
 C          1.9917872697        0.1817268744        0.3583820171
 C          3.3715752574        0.2741285662        0.8601545703
 C          4.3704255400        0.5474833430        0.0010605105
 C          5.8236658042        0.6209815814        0.3686098737
 C          6.5077008040       -0.7436950422        0.2066538793
 C          5.7511935039       -1.8953286870        0.8684907129
 H          4.8001295196       -2.0410177080        0.3514114314
 H          6.3416019984       -2.8016240651        0.7178964025
 C          5.4861407601       -1.7011815600        2.3679865230
 H          6.1501143708       -0.9329069183        2.7657412949
 H          5.7193804683       -2.6322133601        2.8888791268
 C          4.0386853596       -1.3476756327        2.7153737054
 H          3.3621645803       -2.0632257367        2.2412799889
 H          3.9137519849       -1.4478667011        3.7969887021
 C          3.5862642380        0.0674935631        2.3331981952
 H          2.6143728173        0.2448660029        2.8041169342
 H          4.2954272056        0.7990850673        2.7263974534
 H          7.5131788426       -0.6775487072        0.6261418767
 H          6.5976169190       -0.9612603872       -0.8600421633
 H          6.3089988051        1.3414255626       -0.2919808650
 H          5.9157926866        0.9661312603        1.3965744347
 O          4.1720964909        0.7460703349       -1.3270846239
 C          2.9042597081        0.6594602632       -1.8780575572
 O          2.8626263196        0.8615050038       -3.1085503799
 H         -2.0629868351        0.0707425167       -0.5217802043
 C         -1.6950254620        1.0818024871       -0.5426012828
 C         -0.4444064945        1.3592740854       -1.0706506270
 C         -0.0055544201        2.6813957308       -1.0866866189
 C         -0.7952344119        3.6939373379       -0.5793501506
 C         -2.0384698265        3.4097341569       -0.0405348785
 C         -2.4883197314        2.0961577275       -0.0214724778
 N         -3.7623530338        1.7799918589        0.4777314452
 S         -3.9500570933        0.4849546372        1.5280462083
 O         -5.2323657864        0.7279093720        2.1569696374
 O         -2.8248867426        0.3473549156        2.4212540411
 C         -4.0991292881       -0.9409152741        0.4738148043
 C         -5.0635079068       -0.9292621085       -0.5147144737
 C         -5.2109519834       -2.0487414350       -1.3177246683
 C         -4.4013534980       -3.1564338860       -1.1148659465
 C         -3.4393122295       -3.1527020759       -0.1157921907
 C         -3.2840665170       -2.0344797793        0.6887547359
 H         -2.5394549922       -1.9810871072        1.4678712890
 H         -2.8075399579       -4.0131562886        0.0389043003
 H         -4.5174815533       -4.0279727069       -1.7399514844
 H         -5.9550739414       -2.0558897737       -2.0976507276
 H         -5.6767624279       -0.0521103544       -0.6352435700
 H         -4.2897576104        2.5775711012        0.8041146235
 H         -2.6550456110        4.1996280768        0.3613808834
 H         -0.4403012711        4.7135576472       -0.5980056575
 H          0.9675281653        2.9018781609       -1.5050066267
 C          0.4487147812        0.2940670233       -1.6598032673
 H          0.5895687831        0.5286800196       -2.7252644874
 C         -0.1156037084       -1.1058779196       -1.5426430936
 C         -1.1033669124       -1.5980437069       -2.5562883587
 C          0.2945430487       -2.1376336995       -2.5483339735
 H          0.4568042584       -3.1500544098       -2.2105622754
 H          0.9711047902       -1.8252501559       -3.3307811208
 H         -1.3786119255       -0.9205823117       -3.3502445859
 H         -1.9051148810       -2.2405977831       -2.2257471870
 H         -0.2298833708       -1.4269251998       -0.5134111301
 O          1.0372012230       -0.0544036695        1.1443387460
