  62
        -98.93720547
 C         -0.9187440979       -2.0805095455       -0.6509330341
 C         -1.3214410885       -0.9181570609       -1.3511869600
 C         -2.6095463019       -0.3324186079       -0.9390489817
 C         -3.3062529046       -0.8781640512        0.0710200717
 C         -4.6212327234       -0.3951142495        0.6212746574
 C         -4.5831136543        0.9938039206        1.2882699163
 C         -5.0014542469        2.1449994417        0.3649739679
 H         -5.6231004381        1.7449762856       -0.4372706192
 H         -5.6267268707        2.8394790739        0.9299122122
 C         -3.8560154348        2.9640862276       -0.2373245241
 H         -3.4706571124        3.6496504429        0.5213020568
 H         -4.2700473892        3.5680624641       -1.0482940603
 C         -2.6641775964        2.1669937435       -0.7710454547
 H         -2.0402696932        1.8362618355        0.0635745039
 H         -2.0471716680        2.8465742135       -1.3641782184
 C         -3.0357910680        0.9359993056       -1.6215158452
 H         -4.1052801528        0.9182965949       -1.8263167595
 H         -2.5020529414        0.9720255558       -2.5738365788
 H         -3.5851427670        1.1725340993        1.6908310561
 H         -5.2725720771        0.9630802028        2.1337057494
 H         -4.9221689503       -1.1410104360        1.3597513335
 H         -5.3650539274       -0.3971440249       -0.1787768258
 O         -2.8862811173       -1.9979881948        0.7213856636
 C         -1.6881216907       -2.6049004340        0.3915701314
 O         -1.4181700272       -3.6099084148        1.0814810014
 O         -0.6683097715       -0.3745079465       -2.2777644750
 C          0.4101638870       -2.7948775640       -0.8585563471
 C          1.3426138602       -2.4048555428        0.2619128937
 C          2.0779206529       -3.3498660401        0.9649748000
 C          2.8779517998       -2.9623707777        2.0261381038
 C          2.9499164685       -1.6357594374        2.4091323450
 C          2.2217130313       -0.6796775390        1.7063061684
 C          1.4443072739       -1.0702061141        0.6276532043
 H          0.8651772058       -0.3346104141        0.0956400577
 N          2.2869960853        0.6679860608        2.0663462852
 S          1.2076268785        1.8376372399        1.5602989652
 O          1.4049118264        2.9153558244        2.5074557758
 O         -0.1407564987        1.3325329827        1.4545735838
 C          1.8763460079        2.3303653254       -0.0144553580
 C          3.0832864758        3.0047315228        0.0160268732
 C          3.6752129214        3.3821149211       -1.1769162082
 C          3.0553451490        3.0773826182       -2.3803334608
 C          1.8441369122        2.4056602573       -2.3939316482
 C          1.2442298074        2.0279278637       -1.2017837565
 H          0.3071550052        1.4941410737       -1.2036940561
 H          1.3550615436        2.1571236935       -3.3221213280
 H          3.5176974635        3.3650219633       -3.3114587173
 H          4.6165655281        3.9075634538       -1.1669504685
 H          3.5254169924        3.2282360395        0.9727747039
 H          2.7295818000        0.8761351532        2.9471668264
 H          3.5547126841       -1.3388174764        3.2521729382
 H          3.4392314563       -3.7046460383        2.5732618910
 H          1.9975118966       -4.3928866127        0.6966513477
 H          0.1944604527       -3.8702458128       -0.7430918841
 C          1.0253501117       -2.6005761564       -2.2347377780
 C          2.1564399754       -1.6581543988       -2.5016557205
 C          2.3966263068       -3.1362988542       -2.5238136397
 H          2.5709718660       -3.6194392208       -3.4731624001
 H          2.9483669731       -3.5641552504       -1.7004189149
 H          2.1421312166       -1.1160613955       -3.4342516448
 H          2.5516983391       -1.0868148038       -1.6757555679
 H          0.2879017997       -2.6995713922       -3.0233964243
