  62
        -98.94450663
 C          2.6392181649        1.2794196080        0.1116101765
 C          2.5884083041        0.2942662564       -0.9043156429
 C          3.5173735153       -0.8358825003       -0.7499263401
 C          4.3485153681       -0.8738056885        0.3067637931
 C          5.3029821538       -1.9907321116        0.6118568739
 C          4.6517402588       -3.0471211158        1.5153598990
 C          3.2755856874       -3.5094823832        1.0356336200
 H          2.9294601935       -4.2774697511        1.7308377845
 H          2.5711396194       -2.6767306911        1.1046474804
 C          3.2556947988       -4.0695527024       -0.3934310851
 H          4.2673145455       -4.3368345317       -0.7014331596
 H          2.6604029794       -4.9850184641       -0.4017790610
 C          2.6405729721       -3.1319894766       -1.4343560539
 H          1.6619076372       -2.7886152992       -1.0861926608
 H          2.4756189568       -3.7043490016       -2.3515103073
 C          3.4829503683       -1.9047705791       -1.8057293593
 H          4.4945827031       -2.2198932665       -2.0694567708
 H          3.0257708199       -1.4434230983       -2.6860600377
 H          5.3223271472       -3.9057393864        1.5809785422
 H          4.5395547915       -2.6251475513        2.5166279964
 H          5.6305760784       -2.4467042975       -0.3202735100
 H          6.1694136460       -1.5709938548        1.1255926838
 O          4.3787898101        0.0960796059        1.2551227266
 C          3.5193727689        1.1782441740        1.1934282826
 O          3.6375570518        1.9789666236        2.1418977292
 O          1.8206254016        0.3413452111       -1.9025440320
 C          1.7119820897        2.4868526095        0.1162880629
 C          0.3240349681        2.0120711522        0.4729913847
 C         -0.0726408005        1.9808259719        1.8066187558
 C         -1.3118013169        1.4808795020        2.1622616354
 C         -2.1764003052        0.9914614003        1.1984485267
 C         -1.7822456620        1.0024573859       -0.1323586424
 C         -0.5480497803        1.5276517686       -0.4900356241
 H         -0.2452094342        1.5118933211       -1.5251477793
 N         -2.6440916528        0.4855471116       -1.1171659480
 S         -3.2661321200       -1.0547600808       -0.8626701941
 O         -2.3956856526       -1.8529212146       -0.0299879111
 O         -3.5525167549       -1.5745054761       -2.1820894802
 C         -4.8061834566       -0.7471319872       -0.0215553743
 C         -5.0682652515       -1.3612247788        1.1873315401
 C         -6.2773391809       -1.1113650536        1.8181030407
 C         -7.1982843789       -0.2571731896        1.2313468519
 C         -6.9210999529        0.3495308551        0.0152144695
 C         -5.7151038052        0.1028931485       -0.6208995838
 H         -5.4622892574        0.5505888086       -1.5673621642
 H         -7.6398673990        1.0129471728       -0.4381416541
 H         -8.1375638702       -0.0633747660        1.7248150610
 H         -6.4943289499       -1.5827000386        2.7632427216
 H         -4.3194261583       -2.0132236221        1.6085395031
 H         -2.2613975135        0.5548657933       -2.0499569224
 H         -3.1387528961        0.5887806825        1.4695125658
 H         -1.6068659876        1.4672699813        3.2005219207
 H          0.6124127490        2.3370819680        2.5633101599
 H          2.0677626615        3.1313232638        0.9307184711
 C          1.7702004671        3.2700821610       -1.1789003385
 C          1.2073210997        4.6581592190       -1.2145619039
 C          2.6896709769        4.4483749200       -1.2783876252
 H          3.1976057666        4.6264844700       -2.2144098852
 H          3.2797469463        4.6970374835       -0.4082853010
 H          0.6950980772        4.9843611330       -2.1066705600
 H          0.7902785104        5.0491779938       -0.2989113121
 H          1.6617846096        2.6563723388       -2.0635317977
