  62
        -98.93789352
 C          1.4551899590        0.8397187700       -0.0936267015
 C          2.7294012137        1.4512612173       -0.0626752040
 C          3.8486415623        0.5915116417        0.3519381842
 C          3.6018661442       -0.6884424616        0.6861908030
 C          4.6421211090       -1.7072788275        1.0568969755
 C          5.3558465960       -2.2179558468       -0.2110025609
 C          6.8388734473       -1.8550765839       -0.2887261599
 H          7.3988775058       -2.5009199907        0.3909241670
 H          7.1767189765       -2.0741027278       -1.3039352642
 C          7.1895583410       -0.4031231612        0.0507926570
 H          7.2092446501       -0.2736565920        1.1339787062
 H          8.2091699784       -0.2316638454       -0.3010212163
 C          6.2734529562        0.6682908680       -0.5547088289
 H          5.7825230667        0.2925480773       -1.4526898790
 H          6.8950707653        1.5117468989       -0.8623102863
 C          5.2114046617        1.2244951240        0.4122343613
 H          5.5913867825        1.1788995556        1.4367928183
 H          5.0401412435        2.2784381472        0.1732419192
 H          5.2671451326       -3.3039268416       -0.2664931203
 H          4.8357031841       -1.8151397057       -1.0825012731
 H          5.3578042368       -1.2677051834        1.7480945938
 H          4.1287110755       -2.5267500702        1.5600188685
 O          2.3596607319       -1.2367232794        0.6534459164
 C          1.2533615009       -0.4930178105        0.2663357559
 O          0.1786913581       -1.1178894482        0.2874726753
 H         -2.4583115523        1.1330916886       -0.7067637110
 C         -2.1268628336        1.3168014460        0.3003269354
 C         -0.8014439220        1.6216169751        0.5637068932
 C         -0.4300205588        1.8994995360        1.8772677732
 C         -1.3568061761        1.8469664568        2.8993437914
 C         -2.6726134555        1.5057943449        2.6374981355
 C         -3.0571224824        1.2432617847        1.3288609600
 N         -4.3851864565        0.9162281875        1.0294072264
 S         -4.7740648443       -0.0459591814       -0.2761764180
 O         -4.6724704824        0.7133334160       -1.4978673742
 O         -6.0966890909       -0.5436073592        0.0399607164
 C         -3.6124982345       -1.3984681807       -0.2932585999
 C         -3.4731874322       -2.1655649165        0.8451379825
 C         -2.5895172862       -3.2311637634        0.8294087118
 C         -1.8665839942       -3.5128472630       -0.3182944298
 C         -2.0221052558       -2.7369816845       -1.4546572886
 C         -2.9019481006       -1.6679731239       -1.4439327666
 H         -3.0469305422       -1.0344215185       -2.3052141339
 H         -1.4526299428       -2.9545408276       -2.3446035732
 H         -1.1714238086       -4.3373984515       -0.3255940046
 H         -2.4602941564       -3.8348203303        1.7135128293
 H         -4.0523443314       -1.9264437983        1.7225279113
 H         -4.9808216645        0.7445674232        1.8251161175
 H         -3.3950586233        1.4488490622        3.4370852309
 H         -1.0520653181        2.0623549244        3.9125108287
 H          0.6012454650        2.1502507198        2.0859809593
 C          0.2494640138        1.6579415973       -0.5173546399
 H          0.6114596180        2.6918318219       -0.6189677520
 C         -0.2581745079        1.1812892895       -1.8619969565
 C         -0.9947510768        2.1195698661       -2.7691697818
 C          0.3957567590        1.6798998475       -3.1141521268
 H          0.5322644785        0.9916702514       -3.9347931285
 H          1.1994866215        2.3932666890       -3.0041819638
 H         -1.8216937079        1.7370085649       -3.3491006483
 H         -1.1358560159        3.1344772742       -2.4290351720
 H         -0.5695841944        0.1423393185       -1.8390360934
 O          2.9213674984        2.6621919246       -0.3592626483
