  62
        -98.93943389
 C          2.2482845506        0.8329617392       -0.0464387050
 C          3.2648223142        0.6937260547        0.9295351978
 C          4.1649809474       -0.4639247814        0.7939952037
 C          3.9727974111       -1.3324221832       -0.2163234718
 C          4.6904359808       -2.6163214239       -0.5776944434
 C          6.0367286601       -2.9629713258        0.0528865184
 C          7.1908025189       -2.0504622271       -0.3611883264
 H          8.0709130866       -2.3264237502        0.2236129757
 H          7.4192062746       -2.2359737981       -1.4137835471
 C          6.9373784216       -0.5534719961       -0.2021543826
 H          6.1188739447       -0.2484331496       -0.8573993701
 H          7.8333389487       -0.0254894813       -0.5396770207
 C          6.6335435387       -0.0893120691        1.2208382155
 H          6.6321242030        1.0039334215        1.2166597677
 H          7.4276045998       -0.4200321833        1.8929781544
 C          5.2823865609       -0.5511041792        1.7936134042
 H          5.3497285018       -1.5542198841        2.2078279208
 H          5.0140680885        0.1239416693        2.6113960990
 H          6.2824517748       -3.9757558102       -0.2780131097
 H          5.9473732555       -2.9990920186        1.1345948427
 H          4.7987914090       -2.5999392552       -1.6669504055
 H          3.9836512463       -3.4228620782       -0.3522852066
 O          2.9611863881       -1.1711546215       -1.1189311404
 C          2.0846332239       -0.0993278448       -1.0688204350
 O          1.2362779632       -0.0995390731       -1.9824072285
 O          3.4138129063        1.5038396549        1.8826197776
 C          1.3007660082        2.0157441949        0.0709669180
 C         -0.0599364853        1.4929943031        0.4587806907
 C         -0.3277230079        1.2186333885        1.7972874125
 C         -1.5414640622        0.6780957328        2.1772578581
 C         -2.5104676727        0.3904239767        1.2312001196
 C         -2.2450302397        0.6416736561       -0.1076007360
 C         -1.0335354711        1.2066063149       -0.4849701844
 H         -0.8362573720        1.3841612070       -1.5302160212
 N         -3.2155699290        0.3430990043       -1.0788633684
 S         -4.0030951990       -1.1360609066       -0.9965067003
 O         -3.1864347960       -2.1512653923       -0.3719312532
 O         -4.4452528740       -1.4052124444       -2.3476485750
 C         -5.4285345070       -0.7889952035        0.0154113755
 C         -5.7151183096       -1.5913600362        1.1023476428
 C         -6.8340944748       -1.3067072701        1.8697980457
 C         -7.6430954259       -0.2309632754        1.5378234572
 C         -7.3435056015        0.5633676109        0.4409917935
 C         -6.2273022266        0.2834275581       -0.3307972259
 H         -5.9609385702        0.8743118899       -1.1910497395
 H         -7.9746835345        1.3993235146        0.1859794741
 H         -8.5121494906       -0.0105414072        2.1373501778
 H         -7.0685379516       -1.9239206226        2.7221926892
 H         -5.0534257963       -2.4130529713        1.3265642160
 H         -2.9067395512        0.5293630198       -2.0224154911
 H         -3.4544778966       -0.0427346702        1.5186182302
 H         -1.7365995330        0.4751099568        3.2193181713
 H          0.4367788070        1.4224626455        2.5339498594
 H          1.6872566411        2.6131661763        0.9074614913
 C          1.2953970654        2.8724907953       -1.1775104317
 C          0.6908705309        4.2426830960       -1.1204568527
 C          2.1760193069        4.0829863144       -1.2383612854
 H          2.6494452893        4.3274753044       -2.1775264554
 H          2.7848224053        4.3017286440       -0.3734462248
 H          0.1422938195        4.6011551150       -1.9779585315
 H          0.2896065325        4.5682503743       -0.1727839781
 H          1.1783667196        2.3025628376       -2.0912704010
