  62
        -98.93989200
 C         -1.7974503582       -1.4226094718       -0.5336092260
 C         -1.4230406408       -0.1908708271       -1.1164465966
 C         -2.3194842647        0.9620706860       -0.8876175177
 C         -3.4702421295        0.7735667991       -0.2181613526
 C         -4.5265491895        1.7812335808        0.1537635875
 C         -4.1107448613        2.6694515446        1.3340073781
 C         -2.7106099610        3.2657715414        1.2197754146
 H         -2.5166292475        3.8341602339        2.1338514347
 H         -1.9708638727        2.4630581803        1.1835547625
 C         -2.5012471250        4.2043022809        0.0330084687
 H         -3.2505689765        4.9985929481        0.0655120264
 H         -1.5192323694        4.6661254527        0.1647309270
 C         -2.5298076773        3.5517447655       -1.3526765803
 H         -3.5477261245        3.4030023112       -1.7043911738
 H         -2.0596959728        4.2512344882       -2.0498802295
 C         -1.7501859445        2.2446572782       -1.4436105973
 H         -1.5289199110        2.0361951611       -2.4968349970
 H         -0.7756587992        2.3743571906       -0.9560445081
 H         -4.1454511914        2.0660065327        2.2446928337
 H         -4.8430306392        3.4732408778        1.4332998211
 H         -4.7906582913        2.3884626719       -0.7067981805
 H         -5.4114991394        1.2098374618        0.4436790738
 O         -3.8328808881       -0.4537049976        0.2579635432
 C         -3.0035099211       -1.5505545455        0.1600444704
 O         -3.4516778411       -2.5818355148        0.7033998119
 H          0.9752781728       -0.7847507814       -0.0718658118
 C          0.9376751389       -1.5157884134        0.7170421587
 C          0.0387575562       -2.5709469624        0.6327407171
 C          0.0001720895       -3.5032611428        1.6620971760
 C          0.8300576305       -3.3687022637        2.7612301955
 C          1.6907521890       -2.2919016130        2.8630839473
 C          1.7385334545       -1.3523402840        1.8368439602
 N          2.6014886722       -0.2544958902        1.9259636958
 S          2.2570610208        1.2500025957        1.2661371242
 O          2.8899216757        2.1827101946        2.1785279986
 O          0.8439239826        1.4382903288        1.0507884056
 C          3.1875712897        1.2456057278       -0.2523276523
 C          2.5701740498        1.0964662003       -1.4764263347
 C          3.3552085282        1.0799459215       -2.6206158443
 C          4.7308749812        1.2119936612       -2.5234614420
 C          5.3356535538        1.3638836888       -1.2841975210
 C          4.5590067104        1.3809718037       -0.1384422247
 H          4.9850091661        1.5104824476        0.8426218332
 H          6.4061725796        1.4680461267       -1.2095679407
 H          5.3339321489        1.1974182081       -3.4177769754
 H          2.8793913508        0.9599801006       -3.5809772852
 H          1.4981361793        0.9833089086       -1.5333071974
 H          3.0843548682       -0.1665693025        2.8075220175
 H          2.3178509941       -2.1706306637        3.7335026824
 H          0.7915075980       -4.0982760811        3.5560867985
 H         -0.7027173463       -4.3217394129        1.6082599483
 C         -0.9179007260       -2.6649646602       -0.5337559233
 H         -1.5951300564       -3.5090226700       -0.3433284684
 C         -0.1859793881       -2.9238969572       -1.8342582773
 C          0.2663918748       -4.3187156101       -2.1420608297
 C         -0.8653301734       -3.7097878768       -2.9131971821
 H         -0.6988369397       -3.4228708259       -3.9404163624
 H         -1.8666607009       -4.0655789558       -2.7171277250
 H          1.2141186579       -4.4533017612       -2.6400479845
 H          0.0317388152       -5.0915582349       -1.4256691728
 H          0.4516216595       -2.1070691081       -2.1427701303
 O         -0.3850563234       -0.0224528889       -1.8100265414
