  62
        -98.94245584
 C          1.2054032401        1.1647120604        0.2786993499
 C          1.9024876506        0.3877914406        1.2395609197
 C          2.6590681807       -0.7607833693        0.7256298596
 C          2.6149766904       -1.0380695094       -0.5897805403
 C          3.4106806204       -2.1160527193       -1.2661483704
 C          4.7728536901       -1.5850043490       -1.7362852109
 C          5.5444288503       -0.8154631788       -0.6643057612
 H          6.4986460601       -0.5157595686       -1.1030426216
 H          5.0020588802        0.1013305911       -0.4218181112
 C          5.8010629609       -1.6072728086        0.6254939488
 H          5.6666517211       -2.6733953186        0.4391773089
 H          6.8403931209       -1.4599983683        0.9266594784
 C          4.9296348611       -1.1864463086        1.8102151390
 H          4.9960639709       -0.1041007086        1.9480753589
 H          5.3319054615       -1.6549675385        2.7124024289
 C          3.4479361412       -1.5713025290        1.7148417795
 H          3.3595993714       -2.6373181290        1.4967818196
 H          2.9923628115       -1.3804108190        2.6909075996
 H          5.3720892302       -2.4299027490       -2.0805396910
 H          4.6098009397       -0.9167683592       -2.5850373709
 H          3.5529073108       -2.9458721892       -0.5763884604
 H          2.8541517102       -2.4649046995       -2.1375030002
 O          1.8675560699       -0.3257071897       -1.4664786702
 C          1.1299266198        0.7812182102       -1.0621034801
 O          0.4744219994        1.3039832500       -1.9796996599
 H         -1.3702515393        0.7100886599        1.7496429207
 C         -1.7966891497        1.3321380197        0.9718251808
 C         -0.9956012701        2.2868717299        0.3566768704
 C         -1.5487610306        3.0713288396       -0.6462150795
 C         -2.8674616507        2.8925860093       -1.0276152391
 C         -3.6635311603        1.9442035192       -0.4105774887
 C         -3.1209046298        1.1618401594        0.6000136412
 N         -3.9318737994        0.1933797493        1.2377233516
 S         -4.3432193593       -1.1369361609        0.3088331418
 O         -5.0842525198       -0.6904487612       -0.8414941080
 O         -5.0266848689       -2.0416409510        1.2046549621
 C         -2.7841800693       -1.8438357906       -0.1912194886
 C         -2.1452260098       -1.3436489806       -1.3075472288
 C         -0.9104225098       -1.8643074703       -1.6600118892
 C         -0.3352309293       -2.8602581401       -0.8862117392
 C         -0.9850670689       -3.3448078901        0.2385764310
 C         -2.2214625789       -2.8313014004        0.5931475414
 H         -2.7666378385       -3.1862744904        1.4531741916
 H         -0.5307312685       -4.1176213500        0.8376037010
 H          0.6278391907       -3.2600554399       -1.1614007895
 H         -0.3969057901       -1.4743324103       -2.5245505994
 H         -2.6154692201       -0.5634863607       -1.8841745088
 H         -3.5404260490       -0.1324844205        2.1111362015
 H         -4.6873496303        1.7832398389       -0.7066358184
 H         -3.2814632110        3.5000916391       -1.8181113090
 H         -0.9361972209        3.8025549397       -1.1475031097
 C          0.4453416900        2.3789515302        0.7845867000
 H          0.4776258504        2.2764515704        1.8818935300
 C          1.0875352196        3.7193950403        0.4627598696
 C          2.5797291696        3.8617591107        0.4429365892
 C          1.7957288892        4.0111371504       -0.8245088306
 H          1.6928224288        5.0004740103       -1.2463076707
 H          1.8502480291        3.2278989003       -1.5631072505
 H          3.1645488198        2.9629796308        0.5767439591
 H          3.0225427395        4.7411308508        0.8858427789
 H          0.5320591496        4.5417571703        0.9039070297
 O          1.8918035109        0.6446737407        2.4738550397
