  62
        -98.94125955
 C         -1.6698372806       -0.2645311806        0.2424973134
 C         -2.8110638973       -0.9870329921       -0.1837692567
 C         -3.9227794461       -0.1768517132       -0.7019180995
 C         -3.8024661370        1.1591436131       -0.7915252036
 C         -4.8381699689        2.1111661713       -1.3251416860
 C         -5.9004380541        2.5200496435       -0.2953826323
 C         -6.9178987832        1.4342035757        0.0572474682
 H         -7.3514101741        1.0324341512       -0.8591326705
 H         -7.7232910096        1.9184335486        0.6131950906
 C         -6.3521275800        0.2879019244        0.9072219000
 H         -7.0402278152        0.0682175893        1.7267112493
 H         -5.4074536920        0.6002983244        1.3581232540
 C         -6.1269680158       -1.0166640974        0.1428461053
 H         -7.0862416643       -1.4110274391       -0.1998838693
 H         -5.6896511999       -1.7453243725        0.8301618399
 C         -5.1923963909       -0.8858467922       -1.0667118297
 H         -5.6991744556       -0.3656026786       -1.8791018272
 H         -4.9269667137       -1.8902829681       -1.4053360424
 H         -6.4419535220        3.3743889125       -0.7081415296
 H         -5.3953410916        2.8546892668        0.6136229783
 H         -5.3247913936        1.6730682308       -2.1970347709
 H         -4.3013999136        3.0084156509       -1.6404822454
 O         -2.6743887401        1.8146006017       -0.4101053663
 C         -1.6008889319        1.1284824754        0.1297479148
 O         -0.6496521806        1.8603806987        0.4695256430
 O         -2.9237693325       -2.2410319398       -0.1483537504
 C         -0.4362141842       -0.9204781677        0.8410179665
 C          0.4814223609       -1.4667035774       -0.2266866153
 C          0.0830023574       -2.4930160218       -1.0764973461
 C          0.9577643418       -2.9916340368       -2.0239769886
 C          2.2458524506       -2.4962679258       -2.1270846747
 C          2.6525589361       -1.4687788596       -1.2840549566
 C          1.7634509496       -0.9521123333       -0.3522153576
 H          2.0778106967       -0.1431094089        0.2891412370
 N          3.9453807727       -0.9375233250       -1.3738776781
 S          4.7523263077       -0.3946564907       -0.0140547044
 O          6.1507501503       -0.4499757734       -0.3832443883
 O          4.3763790447       -1.1394210276        1.1644617592
 C          4.2650143438        1.3097986991        0.1386560869
 C          4.4482726976        2.1386526626       -0.9502676583
 C          4.0906689471        3.4725101086       -0.8432937366
 C          3.5601824337        3.9528368270        0.3445237743
 C          3.3861724279        3.1090884126        1.4300490013
 C          3.7425084868        1.7738104407        1.3287749910
 H          3.6195265487        1.0834240311        2.1489122925
 H          2.9692425216        3.4832009694        2.3513198547
 H          3.2784873859        4.9907980719        0.4259416392
 H          4.2234382090        4.1333376941       -1.6848567767
 H          4.8670349725        1.7296090312       -1.8546170110
 H          4.5597169578       -1.4067345836       -2.0226332865
 H          2.9323847968       -2.8990770792       -2.8563570037
 H          0.6379956989       -3.7857159790       -2.6819287454
 H         -0.9174610072       -2.8878673422       -0.9904215461
 H          0.1054137887       -0.1152149679        1.3559799074
 C         -0.7557418617       -2.0021086939        1.8562180412
 C          0.3325837295       -2.4616442790        2.7776958833
 C         -0.8108042112       -1.6523445855        3.3110845677
 H         -1.5446886601       -2.1439598769        3.9321286328
 H         -0.6234740502       -0.6245980924        3.5871372008
 H          0.3827872514       -3.5094216611        3.0320380170
 H          1.3002706730       -1.9893262146        2.6865554779
 H         -1.4547736953       -2.7431120082        1.4922487029
