  62
        -98.94292706
 C         -2.0476476792       -0.9421800812        0.4679674416
 C         -2.7266463376        0.1143465994        1.1308021447
 C         -4.1541475072        0.2626274178        0.8315974067
 C         -4.7498121970       -0.6014276920       -0.0097529435
 C         -6.2033621483       -0.6033217912       -0.3979987156
 C         -6.5451685703        0.3640009701       -1.5395113536
 C         -6.5305703328        1.8459405183       -1.1625423694
 H         -6.9974976840        2.3905920474       -1.9855725859
 H         -7.1487132718        2.0010787443       -0.2777183651
 C         -5.1291494056        2.4245114583       -0.9213511007
 H         -4.3788436214        1.7563793210       -1.3507247829
 H         -5.0362100305        3.3824153920       -1.4381178772
 C         -4.7879426336        2.6693469975        0.5487003769
 H         -5.4481558705        3.4387105509        0.9554516316
 H         -3.7618111997        3.0423755396        0.6047533758
 C         -4.8868797659        1.4217581053        1.4362819515
 H         -4.4182922084        1.6466087373        2.3976666310
 H         -5.9318173211        1.1639188572        1.6081532875
 H         -5.8496127490        0.1912887690       -2.3639140981
 H         -7.5478043933        0.1107907809       -1.8915426516
 H         -6.4361364619       -1.6187177644       -0.7257343895
 H         -6.8155177479       -0.3703299924        0.4737146440
 O         -4.0740529533       -1.6161441970       -0.6055810307
 C         -2.7118296237       -1.8014371196       -0.4082357544
 O         -2.2457112623       -2.7535729166       -1.0635187278
 O         -2.1635762657        0.8936053474        1.9465092020
 C         -0.5665530560       -1.0880077582        0.7706278481
 C          0.2924905755       -0.4376101611       -0.2878237307
 C          0.2305044471       -0.8312823438       -1.6212318573
 C          1.0311724411       -0.2214837789       -2.5691234547
 C          1.9242569334        0.7718590450       -2.2053542368
 C          1.9997399259        1.1666023954       -0.8758495294
 C          1.1782518185        0.5681476216        0.0705813336
 H          1.2413363939        0.8964950168        1.0970931592
 N          2.9074248211        2.1631966359       -0.4655292610
 S          4.0430994843        1.7548617946        0.6962115828
 O          3.3856663226        1.4434822644        1.9384278324
 O          4.9737308666        2.8606219165        0.7164415960
 C          4.8406262943        0.3026658890        0.0336754813
 C          4.2355252608       -0.9285560939        0.1918741092
 C          4.8194499125       -2.0398021312       -0.3955551656
 C          5.9908528593       -1.9031876674       -1.1244626559
 C          6.5880405818       -0.6602249481       -1.2707804258
 C          6.0056517801        0.4560052573       -0.6925274104
 H          6.4358242713        1.4408592908       -0.7779371840
 H          7.5008374014       -0.5575238055       -1.8351921851
 H          6.4404689227       -2.7714983115       -1.5796354322
 H          4.3526127435       -3.0051314951       -0.2833775560
 H          3.3261244546       -1.0021871754        0.7654284564
 H          3.3669136555        2.6335228913       -1.2330832335
 H          2.5538492003        1.2424480545       -2.9454922422
 H          0.9667225146       -0.5301423791       -3.6014535836
 H         -0.4580456915       -1.6118691837       -1.9058836203
 H         -0.4125984975       -0.5315680446        1.7057884295
 C         -0.1264630785       -2.5219458828        0.9940181870
 C          1.0676210453       -2.7855932628        1.8597681812
 C         -0.3053887173       -3.1392576543        2.3466662933
 H         -0.5835488061       -4.1807430260        2.4040024838
 H         -0.7448868810       -2.5272322065        3.1211654859
 H          1.7367227839       -3.5872587240        1.5875129852
 H          1.5571327716       -1.9357487973        2.3138108865
 H         -0.2798743072       -3.1592362604        0.1331144497
