  62
        -98.93738949
 C          2.2380296935        0.2725196306        0.4121829874
 C          2.9275979586       -0.8562629074       -0.1012454451
 C          4.2242155504       -0.5971168729       -0.7336459348
 C          4.6777145092        0.6662744193       -0.8233455226
 C          5.9674414981        1.1023403006       -1.4638388769
 C          7.1914884023        0.9894466771       -0.5448960934
 C          7.6746523756       -0.4364135495       -0.2768549845
 H          7.8093163545       -0.9576148484       -1.2251309285
 H          8.6563487522       -0.3590801561        0.1946686671
 C          6.7525612881       -1.2559593151        0.6367093273
 H          7.3509755047       -1.7701890531        1.3922108054
 H          6.0753275831       -0.5837427305        1.1687821335
 C          5.9255335772       -2.3191816464       -0.0863735978
 H          6.5902088140       -3.0742695641       -0.5120503386
 H          5.2834281742       -2.8120802732        0.6482570982
 C          5.0296418064       -1.7702245981       -1.2045224107
 H          5.6335997297       -1.4947031848       -2.0688261624
 H          4.3303617741       -2.5558119926       -1.5012850788
 H          6.9629927692        1.4809279180        0.4035797806
 H          8.0058296422        1.5428508539       -1.0180763546
 H          6.1385478001        0.5238875216       -2.3721223784
 H          5.8385157710        2.1515426870       -1.7379627772
 O          3.9773254163        1.7256554202       -0.3444458607
 C          2.7510937206        1.5653652543        0.2933447796
 O          2.2512415895        2.6348926210        0.6829837377
 H         -1.0434782206       -1.8107314176        0.6732449711
 C         -1.1726541301       -0.9294135649        0.0589609172
 C         -0.2410090550        0.0961254611        0.1267909061
 C         -0.4202206382        1.2130481716       -0.6838031374
 C         -1.5150018414        1.3040230479       -1.5245936129
 C         -2.4566335972        0.2894903805       -1.5671126660
 C         -2.2765704889       -0.8346235683       -0.7746741603
 N         -3.2796192541       -1.8447990621       -0.7822335214
 S         -4.4288484463       -1.5493107019        0.4207318441
 O         -3.7899645928       -1.2638048541        1.6877668003
 O         -5.3221202033       -2.6858207461        0.4085138920
 C         -5.2518619232       -0.0980013287       -0.1879066312
 C         -6.2088104738       -0.2411280315       -1.1734102329
 C         -6.8172242101        0.8949281318       -1.6826534721
 C         -6.4553714166        2.1455610762       -1.2040233909
 C         -5.4929404455        2.2711410526       -0.2135690062
 C         -4.8820214472        1.1390184470        0.3019454875
 H         -4.1286874190        1.1903718871        1.0720527483
 H         -5.2121230931        3.2439859517        0.1568185257
 H         -6.9273211495        3.0291392779       -1.6040152850
 H         -7.5676106322        0.8028757076       -2.4512687263
 H         -6.4583008076       -1.2330193077       -1.5123142897
 H         -2.8972353809       -2.7693156546       -0.6294100471
 H         -3.3164755933        0.3545525915       -2.2135773003
 H         -1.6410687431        2.1775055704       -2.1455169153
 H          0.3048557863        2.0119153780       -0.6374150065
 C          0.9101562885       -0.0039638440        1.0924099656
 H          0.9767819011       -1.0574218143        1.4102541016
 C          0.6777953582        0.8228502600        2.3498892529
 C         -0.2914663296        1.9591640604        2.4370919422
 C         -0.5968835859        0.6656550741        3.1272048645
 H         -0.5422471268        0.6268594213        4.2049158679
 H         -1.3728905752        0.0404521785        2.7069950325
 H         -0.0038113863        2.8134548391        3.0304167373
 H         -0.8607625722        2.2150078477        1.5579178705
 H          1.5887066243        0.9287852388        2.9311589486
 O          2.4751597216       -2.0314218419       -0.0282949666
