  62
        -98.93552745
 C          2.3864243625       -1.4074894523       -0.0001005121
 C          3.1151029536       -0.7185900189       -1.0023100290
 C          3.9948045897        0.3786770616       -0.5654560388
 C          4.0539336414        0.6911492778        0.7421371550
 C          4.8756836355        1.7207650745        1.4893906282
 C          5.6194225269        2.8201889381        0.7362317354
 C          4.7177836707        3.8567100506        0.0657813752
 H          4.2423565248        4.4585758256        0.8445435801
 H          5.3453071886        4.5215399212       -0.5315865019
 C          3.6078120969        3.2945914325       -0.8192539089
 H          2.9195835272        2.6985633032       -0.2153398913
 H          3.0338676492        4.1381459243       -1.2129034713
 C          4.0780170077        2.4586704587       -2.0079084520
 H          4.7832067500        3.0374273916       -2.6075831852
 H          3.2019903941        2.2499397964       -2.6282107763
 C          4.7267901750        1.1100455220       -1.6536150387
 H          5.7761740303        1.2320537419       -1.3964863047
 H          4.6768660852        0.4695291425       -2.5389392027
 H          6.3038309863        2.3842966200        0.0145153541
 H          6.2305271704        3.3451435066        1.4754388617
 H          4.1927680863        2.1800773192        2.2115258210
 H          5.6034177663        1.1488618404        2.0757790641
 O          3.3268216250        0.0072114175        1.6721005305
 C          2.4757072213       -1.0375594375        1.3402766157
 O          1.8829795128       -1.5227825071        2.3232112798
 O          3.0459512686       -1.0228334039       -2.2231415685
 C          1.4937935550       -2.5451912116       -0.4665181499
 C          0.0878687003       -2.0523595317       -0.6952869283
 C         -0.5431602480       -2.2175325799       -1.9220551479
 C         -1.8224262966       -1.7294207904       -2.1270537886
 C         -2.4971056638       -1.0704551388       -1.1150575747
 C         -1.8729978964       -0.8963354460        0.1134542594
 C         -0.5923390225       -1.3868954579        0.3162641898
 H         -0.1096858311       -1.2457354517        1.2727787896
 N         -2.5511872158       -0.2229889223        1.1502006491
 S         -3.0209763680        1.3592872988        0.8210080710
 O         -2.1562444691        1.9703795050       -0.1631508037
 O         -3.0976245032        2.0150265459        2.1083758618
 C         -4.6657774016        1.1783470238        0.1636871992
 C         -4.9558179100        1.6352315103       -1.1069243715
 C         -6.2445038202        1.4832041879       -1.5950834122
 C         -7.2141845933        0.8808269430       -0.8081520742
 C         -6.9069441683        0.4295175099        0.4670120943
 C         -5.6211770097        0.5792968023        0.9614172407
 H         -5.3407037916        0.2479147141        1.9472640299
 H         -7.6637623083       -0.0378634307        1.0761042414
 H         -8.2156993315        0.7631069157       -1.1907327949
 H         -6.4851976894        1.8337299838       -2.5858426539
 H         -4.1673100312        2.0921349482       -1.6835322556
 H         -2.0472880720       -0.2515280645        2.0262247765
 H         -3.4925307356       -0.6866791537       -1.2684020736
 H         -2.2989163618       -1.8620320516       -3.0862442554
 H         -0.0163013608       -2.7151022806       -2.7230054028
 H          1.9051748499       -2.8331080602       -1.4467479023
 C          1.5666075723       -3.7705284800        0.4348009961
 C          0.4182160764       -4.2764165876        1.2507596349
 C          0.8585293291       -5.0314955586        0.0350739428
 H          1.3668704601       -5.9749469574        0.1629075461
 H          0.2224448122       -4.9841950483       -0.8360109457
 H          0.6416551443       -4.6805313061        2.2264320762
 H         -0.5179777233       -3.7427498504        1.2073680529
 H          2.5510470770       -3.8855277423        0.8772844312
