  62
        -98.94379080
 C          1.4546352377        0.9284841855       -0.4834863484
 C          2.5254292995        1.1074391723        0.4293713981
 C          3.4248988319       -0.0357734234        0.6226956117
 C          3.1740830819       -1.1825686532       -0.0343563833
 C          4.0267913439       -2.4158611898        0.0347794733
 C          5.1019127465       -2.4136359449       -1.0609856677
 C          5.8925209051       -1.1080272675       -1.1469047957
 H          5.2215775580       -0.3064758534       -1.4639655311
 H          6.6406588173       -1.2320225529       -1.9327732913
 C          6.5860718836       -0.6990248523        0.1599875859
 H          7.6058767879       -0.3825505227       -0.0687089370
 H          6.6554531313       -1.5588794792        0.8272216026
 C          5.9143745314        0.4606919968        0.8977441348
 H          5.7565010850        1.2924283945        0.2066689779
 H          6.5967471338        0.8082559981        1.6779550501
 C          4.5759418113        0.1365006210        1.5735937706
 H          4.3108887932        0.9846567721        2.2118672453
 H          4.6867308082       -0.7467208090        2.2065987440
 H          4.6143775058       -2.5836651822       -2.0237230337
 H          5.7853454569       -3.2441486006       -0.8748975512
 H          4.4927983031       -2.4722417080        1.0168792448
 H          3.3810493230       -3.2857666028       -0.0991897857
 O          2.1284536773       -1.3298208679       -0.8827377246
 C          1.2351226890       -0.2912678483       -1.1260805799
 O          0.3318714129       -0.5951282773       -1.9259328365
 H         -0.8192664283       -0.0012549782        0.3632843718
 C         -1.1466240236        0.9306776524        0.7932607938
 C         -0.5546983902        2.1189315544        0.3908403100
 C         -0.9697615701        3.3064674856        0.9829720471
 C         -1.9619877591        3.2995268625        1.9472493540
 C         -2.5495041001        2.1128592043        2.3456765682
 C         -2.1275863532        0.9158780625        1.7742814655
 N         -2.6643405167       -0.2983893278        2.2082579472
 S         -2.6409506973       -1.7204017342        1.3402691675
 O         -3.4434191377       -2.6159705737        2.1474928266
 O         -1.2858109313       -2.1406027141        1.0880034276
 C         -3.5227467338       -1.3710873539       -0.1695152864
 C         -4.8950373254       -1.2309619196       -0.0678448028
 C         -5.6309081802       -0.9528198974       -1.2065920615
 C         -4.9850310772       -0.8233889293       -2.4276147099
 C         -3.6103386056       -0.9702638805       -2.5123310288
 C         -2.8641618733       -1.2427705499       -1.3743288522
 H         -1.7908774070       -1.3445523980       -1.4243596385
 H         -3.1012212994       -0.8726201983       -3.4576780676
 H         -5.5554392268       -0.6092841175       -3.3176637414
 H         -6.7010850227       -0.8406141079       -1.1411141896
 H         -5.3593989087       -1.3626735706        0.8958539753
 H         -3.4397586770       -0.2390079875        2.8492538524
 H         -3.3136641369        2.1054835280        3.1073943855
 H         -2.2774155883        4.2274394675        2.3993646332
 H         -0.4946372165        4.2343693035        0.7008550551
 C          0.5250705808        2.1149871529       -0.6641347745
 H          1.1563168633        3.0001694366       -0.4815199435
 C         -0.0375033428        2.2394772236       -2.0729246810
 C         -1.4612959200        1.9320255541       -2.4147609942
 C         -0.9831728809        3.3509605684       -2.4212409638
 H         -0.8592419061        3.8511194205       -3.3697030411
 H         -1.3189418938        3.9932668252       -1.6221257512
 H         -2.1165131607        1.6131054319       -1.6186653459
 H         -1.6534133656        1.4409649642       -3.3555872050
 H          0.7016945367        1.9788164533       -2.8233907736
 O          2.7213191980        2.1875624722        1.0509545051
