  62
        -98.93849069
 C         -2.5593568851       -1.1840855649        0.2115428427
 C         -2.6700945404       -0.3336111922       -0.9128319139
 C         -3.5095090024        0.8671692820       -0.7462857304
 C         -4.1081503052        1.0994026402        0.4368918565
 C         -5.0403327267        2.2084396732        0.8786939096
 C         -5.1577428440        3.4986090981        0.0707033154
 C         -3.8952442614        4.3594705405        0.0471407121
 H         -4.0689660428        5.1996099879       -0.6286898752
 H         -3.7324057589        4.7664393033        1.0484765240
 C         -2.6139908964        3.6426531415       -0.3726374244
 H         -1.8008777531        4.3735331511       -0.3531170423
 H         -2.3681653586        2.8715848049        0.3610468291
 C         -2.6406361208        3.0136238506       -1.7646411190
 H         -2.9234186028        3.7669429508       -2.5022306471
 H         -1.6241180560        2.6830248374       -1.9947989966
 C         -3.5678815375        1.7957580845       -1.9244577594
 H         -4.5923516475        2.0994431006       -2.1250985602
 H         -3.2199432532        1.2186875718       -2.7860259669
 H         -5.9490838349        4.0878635907        0.5420566346
 H         -5.4876950827        3.2812713179       -0.9407784068
 H         -6.0343761284        1.7527882735        0.9475893158
 H         -4.7433991477        2.4539401948        1.9034137179
 O         -3.9715581521        0.2441880162        1.4942548215
 C         -3.1919688464       -0.8967959152        1.4178719013
 O         -3.1371801976       -1.5555557966        2.4774325438
 H         -0.2878540178       -0.3752887611        1.0834471770
 C          0.2995527615       -0.9544200847        0.3799586534
 C         -0.2762354906       -2.0634826494       -0.2275002316
 C          0.4970971673       -2.8068726670       -1.1094903707
 C          1.8002833288       -2.4316342748       -1.3876651514
 C          2.3597213877       -1.3130667323       -0.7986534979
 C          1.6002163585       -0.5692878317        0.0951197518
 N          2.1547956769        0.5779656274        0.6915618140
 S          3.6302551348        0.4169455955        1.4785750762
 O          3.8064474113       -0.9179676916        2.0026147529
 O          3.6642160129        1.4951295261        2.4428680313
 C          4.8322347628        0.7377671084        0.2052979687
 C          5.8323706344       -0.1812829658       -0.0446225531
 C          6.7634077822        0.0947769569       -1.0340116299
 C          6.6779452551        1.2781626415       -1.7513153558
 C          5.6683267183        2.1916547532       -1.4862943437
 C          4.7355475525        1.9228288990       -0.4974785161
 H          3.9376282968        2.6062231636       -0.2589348125
 H          5.6045770688        3.1105182654       -2.0466250243
 H          7.4023646993        1.4902148207       -2.5217300405
 H          7.5491918143       -0.6136513827       -1.2413688200
 H          5.8543248537       -1.0908537190        0.5340902712
 H          1.5024108038        1.0866828801        1.2706059096
 H          3.3703734106       -1.0120625052       -1.0211710792
 H          2.3872300414       -3.0165439393       -2.0791547470
 H          0.0778803146       -3.6796124783       -1.5825282664
 C         -1.6965478934       -2.4290746917        0.1345358843
 H         -1.6869893762       -2.8566786319        1.1487397112
 C         -2.3183675519       -3.4354053300       -0.8122174820
 C         -2.1478860236       -4.9052315539       -0.5765857315
 C         -3.4757854622       -4.2559751027       -0.3309976406
 H         -4.2858222155       -4.4578507381       -1.0155396985
 H         -3.7948716405       -4.1086656672        0.6909844798
 H         -2.0496949010       -5.5569639622       -1.4316681475
 H         -1.5686394464       -5.2111855797        0.2816786394
 H         -2.3486195487       -3.0777561200       -1.8348936505
 O         -2.0974607774       -0.5619056646       -2.0092156989
