  62
        -98.93198231
 C         -1.7209286842       -0.9148439741        0.4474790653
 C         -3.0322828133       -0.9665565310        0.9858297595
 C         -3.9159169963        0.1654925623        0.6708538189
 C         -3.4315992192        1.1882620630       -0.0563326517
 C         -4.2249092864        2.3714566777       -0.5329301546
 C         -5.0947191859        1.9684040046       -1.7409054950
 C         -6.6003842914        2.0270118249       -1.4819890321
 H         -6.9213274682        3.0707804669       -1.4900850093
 H         -7.0948445460        1.5242019594       -2.3159491760
 C         -7.0775790888        1.4005314241       -0.1681302320
 H         -8.1600359703        1.2805672801       -0.2485256403
 H         -6.9022014600        2.0949391727        0.6548734404
 C         -6.4578932957        0.0444176139        0.1933831851
 H         -6.1074805969       -0.4692256118       -0.7024030091
 H         -7.2393170226       -0.5798908380        0.6314390557
 C         -5.3139766915        0.1167624555        1.2221381550
 H         -5.4747133003        0.9704160033        1.8862838760
 H         -5.3400322383       -0.7874588955        1.8375240209
 H         -4.8153815763        0.9564032855       -2.0423925780
 H         -4.8678492419        2.6197790641       -2.5863558669
 H         -3.5135964460        3.1464427861       -0.8188984568
 H         -4.8457996528        2.7484710593        0.2767557095
 O         -2.1529181472        1.2277925619       -0.5100260839
 C         -1.2615115155        0.1879133530       -0.2731483638
 O         -0.1254976865        0.3865036276       -0.7414615979
 O         -3.4413648012       -1.9172056893        1.7039112258
 C         -0.8005346146       -2.0878107208        0.7353026292
 C          0.5682452302       -1.5928877589        1.1254466043
 C          0.6968255910       -0.8231051373        2.2788531307
 C          1.9210314372       -0.3093953128        2.6599556489
 C          3.0486265330       -0.5523903028        1.8948092174
 C          2.9323825887       -1.3216337463        0.7461308305
 C          1.7039907498       -1.8456570580        0.3712255863
 H          1.6362094974       -2.4143135554       -0.5435897535
 N          4.0970862510       -1.5338166557       -0.0425586888
 S          4.3290066545       -0.3430641220       -1.2234277858
 O          3.3095126697       -0.4365215679       -2.2466844280
 O          5.6834340740       -0.5317693080       -1.6996515374
 C          4.2029140499        1.1845437851       -0.3265078471
 C          2.9620594879        1.7653700827       -0.1517402870
 C          2.8810424152        2.9412123947        0.5787632398
 C          4.0270027299        3.5079338270        1.1155872673
 C          5.2641240833        2.9096829544        0.9277776154
 C          5.3554132845        1.7337112602        0.2012645264
 H          6.2921744227        1.2305907503        0.0254383855
 H          6.1530250575        3.3535664572        1.3462282190
 H          3.9534737901        4.4218818697        1.6839099758
 H          1.9170816852        3.4018428391        0.7266169203
 H          2.0849335961        1.2973461327       -0.5731074451
 H          4.0653659655       -2.4194048309       -0.5329128545
 H          4.0108905577       -0.1561207662        2.1752833012
 H          1.9989491543        0.2881767204        3.5551108020
 H         -0.1879434368       -0.6212114160        2.8675011800
 H         -1.2500853406       -2.5805695012        1.6136152287
 C         -0.7670105209       -3.1283598385       -0.3746861885
 C         -1.9505506143       -3.3482370819       -1.2669906655
 C         -0.6955010317       -2.7483228361       -1.8225581493
 H         -0.0869582969       -3.3484733416       -2.4841581079
 H         -0.6841753156       -1.6965812016       -2.0652538103
 H         -2.2034246191       -4.3608488926       -1.5430477264
 H         -2.8080125327       -2.7058750139       -1.1307196113
 H         -0.2197304147       -4.0186729679       -0.0785836512
