  62
        -98.93785258
 C          2.5668226999        1.2880608202        0.2036404317
 C          2.6547644203        0.2816260508       -0.7847315889
 C          3.8909329906       -0.5235698589       -0.7875667991
 C          4.8462787403       -0.2601766091        0.1210469212
 C          6.1543470305       -0.9767014488        0.3147689910
 C          6.0188254607       -2.0871899094        1.3701340904
 C          5.5542298112       -3.4377981092        0.8269743396
 H          6.3588237214       -3.8840498587        0.2387716795
 H          5.3752510212       -4.0896982597        1.6850351093
 C          4.2870641313       -3.3962963491       -0.0311438306
 H          3.5494488210       -2.7367481796        0.4302047597
 H          3.8571926716       -4.3998330193       -0.0436760012
 C          4.5518583514       -2.9516865883       -1.4773315403
 H          4.1113699817       -3.6768877581       -2.1648899407
 H          5.6256116714       -2.9623598979       -1.6635738201
 C          3.9750625310       -1.5800235683       -1.8555085996
 H          4.5414489311       -1.1761289177       -2.7017141393
 H          2.9440205811       -1.7031943084       -2.2030023899
 H          6.9875578906       -2.2320728894        1.8524978505
 H          5.3212447705       -1.7383834700        2.1358349605
 H          6.5211911508       -1.3718435682       -0.6276942291
 H          6.8627723703       -0.2320027088        0.6836425315
 O          4.7144842299        0.7151607204        1.0623813317
 C          3.5830319497        1.5044127500        1.1341150219
 O          3.5975889393        2.3487695096        2.0522361724
 O          1.7474066005        0.0616952010       -1.6310480291
 C          1.3419018396        2.1824641698        0.2786088619
 C          0.1083316998        1.3428542794        0.5041695713
 C          0.0581585599        0.5230918388        1.6294755109
 C         -1.0467899399       -0.2665358917        1.8785422103
 C         -2.1289318098       -0.2573586416        1.0140870301
 C         -2.0845338398        0.5457844691       -0.1160174995
 C         -0.9737932600        1.3474126495       -0.3589604389
 H         -0.9561217801        1.9656138200       -1.2424522685
 N         -3.1763242397        0.5882418192       -0.9926929896
 S         -4.1216247093       -0.7611307609       -1.2777229505
 O         -3.3613838889       -1.9874315807       -1.2154742410
 O         -4.7884710892       -0.4831422004       -2.5311220305
 C         -5.3209565795       -0.7134587920        0.0390502393
 C         -5.5891636893       -1.8556376124        0.7674159287
 C         -6.5362007895       -1.8001193232        1.7783320186
 C         -7.1962362599       -0.6096805336        2.0408529891
 C         -6.9179448901        0.5281009869        1.2981792797
 C         -5.9734322399        0.4786738077        0.2856362199
 H         -5.7309464700        1.3404750781       -0.3132558996
 H         -7.4329587704        1.4523522266        1.5053472602
 H         -7.9313797600       -0.5683193642        2.8290284790
 H         -6.7540541693       -2.6839817836        2.3561401281
 H         -5.0474912990       -2.7584592521        0.5329850283
 H         -3.0178355397        1.1233247897       -1.8332870793
 H         -2.9882147096       -0.8806664019        1.1985352796
 H         -1.0702289999       -0.8969913722        2.7546619599
 H          0.9047448098        0.5129950086        2.3031405410
 H          1.4856485293        2.8156200094        1.1658415023
 C          1.2703247196        3.0713791405       -0.9451574376
 C          0.5306020092        4.3731456602       -0.8846153470
 C          2.0278457692        4.3636970007       -0.9457454768
 H          2.5104725892        4.6774108213       -1.8592616066
 H          2.5810691190        4.6143949404       -0.0523376166
 H         -0.0143013708        4.6994483405       -1.7577103069
 H          0.0638828289        4.6378780296        0.0519320230
 H          1.2468202299        2.5086793410       -1.8715904179
