  62
        -98.94496245
 C          1.9016759031        0.7233551636       -0.1464951386
 C          2.4756549771        0.0883963309        0.9801401301
 C          3.5472818437       -0.8759316692        0.6992143822
 C          3.8828416154       -1.1310029374       -0.5788725373
 C          4.9881821291       -2.0515285278       -1.0066860820
 C          6.3137812263       -1.2927256374       -1.1606247372
 C          6.6617699891       -0.4080194736        0.0365391129
 H          7.6301995267        0.0524127936       -0.1703735197
 H          5.9301992264        0.4001257163        0.1069244247
 C          6.7253617173       -1.1515046607        1.3780837282
 H          6.8242639188       -2.2235148304        1.2034219982
 H          7.6186435043       -0.8273329003        1.9161271368
 C          5.5327535257       -0.8965687165        2.3016265325
 H          5.3736253651        0.1797253598        2.4050992261
 H          5.7802785125       -1.2875328768        3.2921431399
 C          4.2078807683       -1.5407859951        1.8742312626
 H          4.3615774354       -2.6044222064        1.6801097813
 H          3.5064226196       -1.4420893425        2.7080909466
 H          7.1109847868       -2.0206592960       -1.3218686045
 H          6.2480935323       -0.6585506348       -2.0477182494
 H          5.0964849527       -2.8480448326       -0.2729384703
 H          4.7168136980       -2.4905530040       -1.9683200093
 O          3.2747934906       -0.5382558944       -1.6375825141
 C          2.2765023825        0.4082961770       -1.4529863645
 O          1.8135702982        0.8784509466       -2.5083212849
 H         -0.3269784868       -0.6195293424        0.3968600787
 C         -0.9154212539       -0.0044515029       -0.2728470536
 C         -0.4767678262        1.2812622454       -0.5681796234
 C         -1.2501734292        2.0658336213       -1.4125917910
 C         -2.4095303740        1.5581216376       -1.9747950440
 C         -2.8284537616        0.2702112819       -1.6995388648
 C         -2.0749372593       -0.5148713674       -0.8347635748
 N         -2.5016275907       -1.8173370924       -0.5297644050
 S         -4.1281428824       -2.0717027564       -0.2350959787
 O         -4.1769530205       -3.2147221672        0.6498409047
 O         -4.8319970873       -2.2164707838       -1.4852282213
 C         -4.6952467726       -0.6037189479        0.6067242376
 C         -4.0686483360       -0.2415436300        1.7827595496
 C         -4.4805909753        0.9094478437        2.4343332826
 C         -5.5078073677        1.6741983715        1.9025380525
 C         -6.1311886126        1.2936814138        0.7245546665
 C         -5.7214057993        0.1447076629        0.0670918034
 H         -6.1748115498       -0.1859594620       -0.8531740783
 H         -6.9309560663        1.8888589143        0.3143066438
 H         -5.8232484741        2.5714090269        2.4112021660
 H         -3.9960522946        1.2063372670        3.3507052100
 H         -3.2750117207       -0.8581007670        2.1740309058
 H         -1.9206198192       -2.2985157740        0.1401001059
 H         -3.7159726310       -0.1454398431       -2.1482883804
 H         -2.9928444485        2.1738452357       -2.6420167594
 H         -0.9396697450        3.0712140587       -1.6431512145
 C          0.8068881654        1.7528734142        0.0696138910
 H          0.6525510215        1.7877326010        1.1584130405
 C          1.2591239363        3.1184817247       -0.4016043499
 C          0.6986097707        4.3571247329        0.2289279491
 C          2.1135752755        3.9497896683        0.5063214871
 H          2.9146626975        4.5294775340        0.0727009365
 H          2.3489130892        3.5410104438        1.4783316192
 H          0.5290509275        5.2218525781       -0.3945113504
 H         -0.0276299781        4.2312740351        1.0173598662
 H          1.4893426935        3.1386175359       -1.4608044285
 O          2.1033896556        0.3123351938        2.1643758212
