  62
        -98.93708333
 C          2.6372132589        0.0180137852        0.1654352989
 C          2.1283725102       -0.7860852713       -0.8817194107
 C          1.7746847719       -2.1784553858       -0.5347290125
 C          1.9067369393       -2.6057802161        0.7333766619
 C          1.6491904403       -3.9546746422        1.3737257018
 C          0.9081661040       -5.0512393919        0.6147042487
 C         -0.5761588975       -4.7706173819        0.3782888507
 H         -0.9708321175       -5.5452795385       -0.2827346333
 H         -1.0987114457       -4.8494058458        1.3348751533
 C         -0.9096454572       -3.4015595803       -0.2104876138
 H         -1.9981457231       -3.3257866640       -0.2951316176
 H         -0.5976670484       -2.6081399437        0.4727694051
 C         -0.3256138229       -3.1152229069       -1.5921260674
 H         -0.7400686421       -2.1584425880       -1.9233885940
 H         -0.6466355707       -3.8857429764       -2.2971440630
 C          1.2062190177       -3.0034011016       -1.6537884850
 H          1.6738506261       -3.9848505924       -1.6870646215
 H          1.4652009038       -2.4824669453       -2.5805832720
 H          1.4131838248       -5.2650409083       -0.3226550844
 H          0.9782578969       -5.9552979687        1.2257931866
 H          2.6352504070       -4.3364744918        1.6611758852
 H          1.1172482189       -3.7423664032        2.3067455218
 O          2.3963616211       -1.7907009131        1.7143914818
 C          2.7457915944       -0.4792657082        1.4653860561
 O          3.1539230644        0.1387540010        2.4711467916
 O          1.9760300205       -0.3934068520       -2.0694503099
 C          2.9888309084        1.4905704361        0.0230895252
 C          1.7758796377        2.3357205209        0.3400414489
 C          1.8775320937        3.4639946993        1.1456277454
 C          0.7522732584        4.2002821239        1.4704447950
 C         -0.4973601912        3.8082513632        1.0255206034
 C         -0.6074712073        2.6856476598        0.2130017422
 C          0.5287062195        1.9777498022       -0.1481733467
 H          0.4218125963        1.1166371522       -0.7897959461
 N         -1.8551135726        2.2392025095       -0.2517202248
 S         -2.0821266778        0.5603537087       -0.3109996045
 O         -1.4187690763       -0.0661517268        0.8092052198
 O         -1.7315583961        0.0966286635       -1.6284806164
 C         -3.8531097955        0.4680381176       -0.1134520862
 C         -4.3856694519        0.1625202315        1.1242989547
 C         -5.7637719685        0.1288304861        1.2716279361
 C         -6.5810270247        0.4036470606        0.1855411289
 C         -6.0318083477        0.7076244971       -1.0514905319
 C         -4.6551172309        0.7407443275       -1.2059817293
 H         -4.1819430690        0.9612670270       -2.1486458801
 H         -6.6699761194        0.9176403177       -1.8945201592
 H         -7.6527674425        0.3778851069        0.3032650292
 H         -6.1928652160       -0.1113858383        2.2310208841
 H         -3.7095729704       -0.0499704621        1.9370876934
 H         -2.6327710882        2.7087076931        0.1924084026
 H         -1.3807719202        4.3611316319        1.3068648909
 H          0.8450060041        5.0730419491        2.0987727864
 H          2.8429194912        3.7484337144        1.5368674993
 H          3.7436727552        1.6962850357        0.7960604312
 C          3.5663357208        1.8795106044       -1.3228504857
 C          4.4670269353        3.0733236485       -1.4143709086
 C          5.0305789937        1.6943427629       -1.5778070527
 H          5.3426854681        1.3713809450       -2.5592824019
 H          5.6283538110        1.2887640166       -0.7742995864
 H          4.3924803745        3.7049865470       -2.2860141962
 H          4.6922548276        3.6053560202       -0.5027244556
 H          2.8909149735        1.6920812425       -2.1470008294
