  62
        -98.93645611
 C          2.3617040642       -1.2920597329        0.0724090016
 C          3.1013191934       -0.5351239423       -0.8657003934
 C          3.9614300468        0.5184206341       -0.3109694962
 C          4.0056250191        0.7075804370        1.0204523797
 C          4.8715271668        1.6923295888        1.7612030599
 C          4.5757023662        3.1845541262        1.5157183469
 C          5.4289039334        3.8260626527        0.4144371330
 H          6.3534323936        3.2569777572        0.3100924339
 H          5.7136812960        4.8311825698        0.7318882185
 C          4.7572803925        3.9651251044       -0.9551408154
 H          5.5343854777        4.1928547438       -1.6878754154
 H          4.0697206651        4.8138110421       -0.9313659980
 C          3.9654800025        2.7491475810       -1.4365794987
 H          3.7089953499        2.9024918142       -2.4870197418
 H          3.0181380346        2.6906176341       -0.8944132551
 C          4.6959096830        1.4012043331       -1.2777698270
 H          5.7232920904        1.5565090237       -0.9520766429
 H          4.7131934560        0.8725219445       -2.2330381784
 H          4.7829219785        3.7050076650        2.4520258879
 H          3.5150840414        3.3154047242        1.3022742047
 H          4.7217061135        1.4696840380        2.8195308704
 H          5.9172547035        1.4870399340        1.5214456436
 O          3.2662995653       -0.0353764992        1.8884940147
 C          2.4151587713       -1.0357589548        1.4427519266
 O          1.7810745852       -1.6100895610        2.3465814269
 H          0.2025483301       -0.0901111350       -0.8507066389
 C         -0.4670666412       -0.8074959321       -0.3908480967
 C          0.0114724186       -2.0768637282       -0.0877858223
 C         -0.8625505421       -2.9922065806        0.4826066454
 C         -2.1704356412       -2.6325518586        0.7603669706
 C         -2.6356122152       -1.3627392043        0.4743660105
 C         -1.7747395989       -0.4431751143       -0.1112661219
 N         -2.2353399699        0.8539946176       -0.4004937463
 S         -3.6536153952        1.0089237067       -1.2880468255
 O         -3.8503649567       -0.1177208348       -2.1705278524
 O         -3.5646503780        2.3093808379       -1.9156608069
 C         -4.9324058875        1.0477181369       -0.0503930781
 C         -5.9694493667        0.1370086029       -0.1018121932
 C         -6.9573720431        0.1916106349        0.8691737490
 C         -6.8913104793        1.1510638361        1.8678291269
 C         -5.8444075013        2.0602724128        1.9034851050
 C         -4.8542822768        2.0119200137        0.9353021899
 H         -4.0264730765        2.7012900867        0.9249705332
 H         -5.7962383680        2.8048963090        2.6816817706
 H         -7.6601618251        1.1909045686        2.6231781057
 H         -7.7720557007       -0.5140303807        0.8432496894
 H         -5.9757207345       -0.5946677962       -0.8939112481
 H         -1.5205941530        1.4616745950       -0.7740225399
 H         -3.6509497969       -1.0781818094        0.6965650343
 H         -2.8364062511       -3.3523485140        1.2111164679
 H         -0.5193246844       -3.9866066127        0.7151963654
 C          1.4473121671       -2.3949416500       -0.4282754642
 H          1.5444161102       -2.3782294744       -1.5246407279
 C          1.9111619081       -3.7433802127        0.0799393115
 C          1.6390076530       -4.9839380002       -0.7156412910
 C          3.0316053894       -4.4373423232       -0.6328825751
 H          3.7637860850       -4.9713162647       -0.0460747029
 H          3.4435951350       -3.9483042705       -1.5037559802
 H          1.1059437565       -4.8728516041       -1.6478804185
 H          1.4168031398       -5.8980528735       -0.1861577621
 H          1.8892488223       -3.8101853677        1.1616654969
 O          3.0469087412       -0.7311553808       -2.1109967345
