  62
        -98.94055972
 C         -2.3714148261       -0.7611337457       -0.1092005401
 C         -3.5472082625       -1.0557204962        0.6215907618
 C         -4.8015770708       -0.5707484257        0.0360140392
 C         -4.7787756489        0.0877398304       -1.1373214622
 C         -5.9766043333        0.6237659488       -1.8737521400
 C         -6.4399539884        2.0047619195       -1.3897843000
 C         -7.1312183019        2.0181212241       -0.0257924013
 H         -7.5932535027        3.0005847138        0.0894911586
 H         -7.9324646706        1.2786275047       -0.0185530157
 C         -6.1912109543        1.7729035348        1.1627902359
 H         -5.1569707306        1.9291157253        0.8470547265
 H         -6.3992011486        2.5025551737        1.9486717176
 C         -6.3125124763        0.3842620545        1.7905656421
 H         -7.3060535544        0.2651255834        2.2282785291
 H         -5.5782122188        0.3066047225        2.5965258093
 C         -6.0669275131       -0.7734049599        0.8138892567
 H         -6.9155841384       -0.8834180346        0.1393484720
 H         -5.9568327569       -1.6935456687        1.3929237423
 H         -7.1415796438        2.3913408527       -2.1325058343
 H         -5.5767674256        2.6739779840       -1.3678306989
 H         -5.6836383492        0.7069452722       -2.9224875741
 H         -6.8010584916       -0.0856942461       -1.7981122980
 O         -3.6278614180        0.3331842680       -1.8191137265
 C         -2.3967971809       -0.0630951073       -1.3163325229
 O         -1.4258256130        0.2560803800       -2.0285470547
 O         -3.5471406508       -1.6899824815        1.7109009226
 C         -1.0329875909       -1.2161557680        0.4409186952
 C         -0.1199130386       -0.0345974384        0.6566418217
 C         -0.6037311644        1.0742215680        1.3476713347
 C          0.2021025240        2.1719741180        1.5760905184
 C          1.5145735697        2.1826541769        1.1367717788
 C          2.0085984010        1.0812027457        0.4494292089
 C          1.1920710093       -0.0168281559        0.2127145689
 H          1.6035088803       -0.8552671166       -0.3234251852
 N          3.3293530165        1.0673247680       -0.0269144465
 S          4.1708392545       -0.3962005016       -0.0252196660
 O          3.8423286520       -1.1321413455       -1.2198847337
 O          3.9624379177       -1.0852425739        1.2283905174
 C          5.8486760944        0.2002239788       -0.1303720236
 C          6.6016122481        0.3158730948        1.0229294752
 C          7.8945387113        0.8073343632        0.9330815114
 C          8.4086683373        1.1756293512       -0.3010682691
 C          7.6411746183        1.0532273813       -1.4500226447
 C          6.3482562583        0.5613230171       -1.3675772197
 H          5.7179142175        0.4401122973       -2.2332395327
 H          8.0452774238        1.3379759468       -2.4080776834
 H          9.4149620993        1.5578213190       -0.3686907767
 H          8.4948872005        0.9003283398        1.8237115772
 H          6.1631003401        0.0089205400        1.9588283275
 H          3.8903611600        1.8221185100        0.3437330158
 H          2.1465168586        3.0387354937        1.3183049558
 H         -0.1906920232        3.0249888438        2.1090625107
 H         -1.6260713999        1.0618914467        1.7013468720
 H         -1.2549513780       -1.6568903673        1.4251701279
 C         -0.4336973559       -2.2886127777       -0.4437079373
 C          0.5130335137       -3.2984858254        0.1304329476
 C         -0.8709094195       -3.7108816868       -0.2695870969
 H         -0.9932537801       -4.3241969674       -1.1496095420
 H         -1.5887399031       -3.9161496439        0.5111352130
 H          1.3482918987       -3.6209019640       -0.4738182921
 H          0.7421440984       -3.2264049551        1.1832966633
 H         -0.2525555043       -1.9405554917       -1.4552910932
