  62
        -98.94043670
 C         -2.1603646624       -1.0917822137        0.1901228347
 C         -1.6572176341       -0.1691096339       -0.7567841446
 C         -2.2020327840        1.2005438405       -0.6847092342
 C         -3.1362820342        1.4857054114        0.2392070250
 C         -3.8004993768        2.8095424631        0.5027690658
 C         -3.0531682489        3.5909542808        1.5965520505
 C         -1.9027997984        4.4622241129        1.0938696896
 H         -2.3121072192        5.3162892344        0.5504318761
 H         -1.3825833020        4.8520106063        1.9719987184
 C         -0.8877966635        3.7513291603        0.1947147081
 H          0.0345485319        4.3341881824        0.2092290173
 H         -0.6520452211        2.7688472520        0.6083229970
 C         -1.3671162578        3.6037649963       -1.2567989522
 H         -0.6036859178        3.9928476674       -1.9323522929
 H         -2.2539819684        4.2192454289       -1.4044332144
 C         -1.6546611309        2.1644305074       -1.7018924892
 H         -2.3340754420        2.1852517212       -2.5605296057
 H         -0.7262538126        1.6989057236       -2.0485141779
 H         -2.6779151555        2.8694435683        2.3272684077
 H         -3.7653189131        4.2366906244        2.1144344822
 H         -4.8055396263        2.5826516093        0.8649977652
 H         -3.8824326292        3.3905461666       -0.4106942485
 O         -3.5874001257        0.5641803259        1.1368135303
 C         -3.1122166061       -0.7336866861        1.1428400026
 O         -3.6006090217       -1.4606329211        2.0328185358
 O         -0.7889866686       -0.4671210509       -1.6167498368
 C         -1.6761320986       -2.5288071467        0.1796779192
 C         -0.1692267167       -2.6039472045        0.2233847423
 C          0.5462636042       -3.5876597566       -0.4481434690
 C          1.9280133403       -3.6271001778       -0.3743726743
 C          2.6271560038       -2.6866732255        0.3591346252
 C          1.9220854567       -1.6938366092        1.0291730190
 C          0.5368200294       -1.6724143091        0.9736023718
 H         -0.0073721010       -0.9041455385        1.5097567392
 N          2.6175770938       -0.7209856253        1.7736846328
 S          3.8161827043        0.1831562182        1.0336191842
 O          4.8848218086       -0.6973687977        0.6334042973
 O          4.1588107305        1.2049687498        1.9968192386
 C          3.0832257072        0.9377029492       -0.4073164458
 C          2.7763457124        2.2831045110       -0.3654674244
 C          2.2140671517        2.8776565047       -1.4826761035
 C          1.9475991297        2.1152478832       -2.6093135619
 C          2.2513258013        0.7631787641       -2.6317068658
 C          2.8326852358        0.1665059632       -1.5250047242
 H          3.0917146234       -0.8791676961       -1.5189604884
 H          2.0322825675        0.1684385073       -3.5034214691
 H          1.5025804063        2.5764177691       -3.4774104318
 H          1.9860196566        3.9313793238       -1.4710460741
 H          2.9964096544        2.8369429229        0.5331630694
 H          2.0084088981       -0.1043611771        2.2919000459
 H          3.7039416616       -2.6934067284        0.4107675186
 H          2.4694551611       -4.3995357271       -0.8993300628
 H          0.0210541101       -4.3248634541       -1.0329405840
 H         -2.0693307806       -2.9907796427        1.0978850909
 C         -2.2662575574       -3.2516083905       -1.0164644173
 C         -2.6382659816       -4.7005180007       -0.9275833330
 C         -3.7089953395       -3.6535377553       -0.9750603098
 H         -4.2992148888       -3.5554354213       -1.8738201679
 H         -4.2555954799       -3.4361198679       -0.0686180419
 H         -2.4965796144       -5.3243170267       -1.7974356109
 H         -2.4689798631       -5.2057820190        0.0114263739
 H         -1.8781395621       -2.8779094176       -1.9572875777
