  62
        -98.94435781
 C          2.5811983249        1.0639268502        0.2353223287
 C          2.6072324381        0.1578345956       -0.8525650497
 C          3.1518717038       -1.1752489682       -0.5641932856
 C          3.5923529203       -1.4744415239        0.6703208185
 C          4.1711707336       -2.7898447681        1.1145217927
 C          3.1139028303       -3.8328666451        1.5020614936
 C          2.3421319330       -4.4447458657        0.3321046802
 H          3.0459635396       -4.8103432520       -0.4164335287
 H          1.8014845512       -5.3093854584        0.7219059613
 C          1.3336149116       -3.4954903912       -0.3301521513
 H          0.3853267129       -4.0149418942       -0.4896639472
 H          1.1131561327       -2.6583403140        0.3373349334
 C          1.7743567359       -2.9434336766       -1.6856441337
 H          1.8441770350       -3.7597740954       -2.4087045386
 H          0.9986212716       -2.2544051851       -2.0322707157
 C          3.1138628229       -2.1951266827       -1.6622563713
 H          3.9352479645       -2.9028223240       -1.5532901840
 H          3.2279348827       -1.6677949952       -2.6126787607
 H          3.6291561276       -4.6386857886        2.0298269611
 H          2.4088060934       -3.3741700870        2.1992231966
 H          4.8125332387       -3.1933520614        0.3306863038
 H          4.7841540829       -2.5784969526        1.9932459880
 O          3.5728117050       -0.5716274455        1.6853513271
 C          3.0468882174        0.6945216458        1.5022237609
 O          3.0606236292        1.4031650830        2.5285205572
 O          2.2035914032        0.4188008188       -2.0190766422
 C          1.9882001626        2.4647141059        0.1517918199
 C          0.4878784769        2.3624280723        0.2881829715
 C         -0.1742275692        2.8795955216        1.3952507384
 C         -1.5385355905        2.7015367655        1.5481271604
 C         -2.2658488392        1.9876585439        0.6118245481
 C         -1.6105181564        1.4650554507       -0.4944739982
 C         -0.2520250868        1.6731470714       -0.6623172591
 H          0.2485896684        1.2487217198       -1.5202389459
 N         -2.3330448667        0.6692202736       -1.4182279752
 S         -2.6777013925       -0.8658833583       -0.8034627213
 O         -1.6880273888       -1.2801633045        0.1652012365
 O         -2.8538701447       -1.7230575555       -1.9558591168
 C         -4.2498369503       -0.6254382992       -0.0039284447
 C         -4.3460260983       -0.7293601915        1.3695322541
 C         -5.5766179004       -0.5186917490        1.9722602661
 C         -6.6821116929       -0.2089499569        1.1947352046
 C         -6.5688565995       -0.1101717210       -0.1842918604
 C         -5.3417940351       -0.3198467592       -0.7928203968
 H         -5.2080512421       -0.2582631613       -1.8599172187
 H         -7.4309572138        0.1302766701       -0.7852169315
 H         -7.6377238582       -0.0439005113        1.6668565295
 H         -5.6661368701       -0.5951106401        3.0440098533
 H         -3.4573708987       -0.9672011293        1.9323065781
 H         -1.8318860159        0.5545654381       -2.2898059362
 H         -3.3248184474        1.8264054510        0.7336470524
 H         -2.0379938215        3.1099980148        2.4133280069
 H          0.3943884115        3.4013192260        2.1513634989
 H          2.3707630425        3.0036723014        1.0286498424
 C          2.3937031240        3.2261036998       -1.0938059771
 C          2.3133175175        4.7220430517       -1.0856093991
 C          3.6491528989        4.0427778804       -1.0742927780
 H          4.2552583832        4.0747015585       -1.9671127101
 H          4.2215693987        4.0565129694       -0.1580576827
 H          2.0000392429        5.2250185740       -1.9874459697
 H          1.9814263711        5.1999766302       -0.1763752901
 H          2.1525446063        2.7119740414       -2.0143999156
