  62
        -98.93342402
 C          2.5684272958        1.2645630774        0.3018373578
 C          2.4950465639        0.1568497952       -0.5745986264
 C          3.7033152203       -0.6918702420       -0.6767934612
 C          4.7881035771       -0.3755513402        0.0527901476
 C          6.1029027352       -1.1040152464        0.1344612525
 C          6.0207791495       -2.3757362799        0.9950646337
 C          4.7771578580       -3.2304118423        0.7635901821
 H          4.7791504544       -4.0282675974        1.5109851802
 H          3.8867021455       -2.6242222597        0.9407618820
 C          4.6818697293       -3.8819649670       -0.6138811133
 H          5.5490373050       -4.5290514542       -0.7642985032
 H          3.7910808147       -4.5152787408       -0.6121410662
 C          4.5810935468       -2.9237569431       -1.8021500809
 H          4.2908255109       -3.5172873512       -2.6741748921
 H          5.5485237915       -2.4873073548       -2.0355235414
 C          3.5283139339       -1.8294481968       -1.6540364477
 H          3.3782315654       -1.3580872135       -2.6331638795
 H          2.5649080587       -2.2897343339       -1.4066611913
 H          6.9156769254       -2.9734691139        0.8143008765
 H          6.0241232401       -2.0723231531        2.0448570776
 H          6.4655094082       -1.3319139166       -0.8634540485
 H          6.8142446444       -0.4166366868        0.5977204606
 O          4.8066206539        0.6941733740        0.8993161016
 C          3.7140993299        1.5215045696        1.0585329504
 O          3.8784545707        2.4361020981        1.8911190958
 H         -0.8363381177        2.0037594467       -1.0980044595
 C         -0.9203057129        1.4239155484       -0.1919138991
 C          0.1257582252        1.4084632908        0.7160324881
 C         -0.0008782660        0.6290900448        1.8626932762
 C         -1.1407754039       -0.1181614991        2.0879015474
 C         -2.1796962049       -0.1069767020        1.1735937302
 C         -2.0640673768        0.6661954526        0.0271969439
 N         -3.1047967221        0.6644424140       -0.9151056085
 S         -4.6807048340        0.8775628793       -0.3909927606
 O         -5.3934560159        1.3993029414       -1.5370532444
 O         -4.7349590005        1.6737202105        0.8135424292
 C         -5.2552249883       -0.7743989475       -0.0569088108
 C         -5.8219140222       -1.0714259442        1.1669801839
 C         -6.2765630388       -2.3600984517        1.4002952543
 C         -6.1581162265       -3.3233400376        0.4102879965
 C         -5.5883401306       -3.0083094913       -0.8144297218
 C         -5.1331094467       -1.7217735748       -1.0543782139
 H         -4.6866281105       -1.4375157851       -1.9926498209
 H         -5.4970338834       -3.7602590894       -1.5816731266
 H         -6.5119027188       -4.3255800566        0.5939351206
 H         -6.7198631796       -2.6069568642        2.3516695833
 H         -5.8878950701       -0.2918192455        1.9092081751
 H         -2.9113826994        1.2056055040       -1.7447010853
 H         -3.0704581431       -0.6906100722        1.3398547528
 H         -1.2216248259       -0.7187534416        2.9813731303
 H          0.8141216569        0.6139919821        2.5742684269
 C          1.3930930547        2.2027613610        0.5186480657
 H          1.6156218507        2.7160197853        1.4688241998
 C          1.2608520189        3.2926506614       -0.5348347626
 C          2.4763127973        3.8787007908       -1.1872708033
 C          1.5211681174        3.0500968190       -1.9900619368
 H          0.8931946340        3.5520683898       -2.7122905363
 H          1.8208987970        2.0578575155       -2.2873610317
 H          2.5045361733        4.9445941802       -1.3566535227
 H          3.4349155234        3.4522540641       -0.9295567070
 H          0.4636024148        3.9896485001       -0.2920971930
 O          1.4766211435       -0.1343123102       -1.2534396170
