  62
        -98.93312608
 C         -2.2463655301       -0.4609006500        0.0509338206
 C         -3.4757982902       -1.0377036290        0.4488772116
 C         -4.6325093101       -0.1312597088        0.4950185796
 C         -4.4578291699        1.1677075105        0.1904834269
 C         -5.5472656398        2.1996340205        0.1165031046
 C         -6.3312017996        2.0419462078       -1.2021348652
 C         -7.7893869297        1.6190672284       -1.0221566045
 H         -8.3692114797        2.4805093891       -0.6842031964
 H         -8.1694319496        1.3310365664       -2.0045984040
 C         -8.0362275700        0.4730752804       -0.0362131222
 H         -9.0530957700        0.1161184101       -0.2126514216
 H         -8.0140827001        0.8563264125        0.9849508870
 C         -7.0730294501       -0.7170224099       -0.1346117596
 H         -7.6487825802       -1.6331110095        0.0119503422
 H         -6.6329493699       -0.7750032720       -1.1303788094
 C         -5.9494197602       -0.7208438678        0.9189814506
 H         -6.2983398303       -0.2219772759        1.8272657095
 H         -5.7194592403       -1.7577053473        1.1812681128
 H         -5.8115959496        1.3090366765       -1.8230421636
 H         -6.3138432595        2.9849643567       -1.7505734571
 H         -6.2110592900        2.0963250923        0.9718636647
 H         -5.0696734797        3.1785586205        0.1599219127
 O         -3.2554686598        1.6885566897       -0.1686860440
 C         -2.1212674299        0.8941402594       -0.2533845022
 O         -1.0937634498        1.5056486286       -0.6012534533
 H          1.5627807400       -0.4834990816       -0.5881553388
 C          1.3029889399       -0.4252385795        0.4550624511
 C          0.0513662698       -0.8213831284        0.8962650117
 C         -0.2405880704       -0.7231262056        2.2550938215
 C          0.6966243395       -0.2373518038        3.1451253806
 C          1.9467662896        0.1567208151        2.7007447300
 C          2.2455803798        0.0702069223        1.3462982502
 N          3.4903197199        0.5060733312        0.8665350095
 S          4.1725791500       -0.2225333617       -0.4905052589
 O          3.5575503003        0.3085317459       -1.6804530801
 O          4.1507187999       -1.6615880214       -0.3472884059
 C          5.8436495601        0.3866846884       -0.3587367299
 C          6.1051779103        1.6808008176       -0.7682728025
 C          7.3936648803        2.1752921977       -0.6442538334
 C          8.3938592101        1.3721705987       -0.1160667316
 C          8.1170013800        0.0749464296        0.2881901711
 C          6.8297220299       -0.4253107306        0.1686737919
 H          6.5691970998       -1.4293431099        0.4625539940
 H          8.8975213898       -0.5475142797        0.6950828025
 H          9.3960556502        1.7594299788       -0.0218961422
 H          7.6130300004        3.1824755670       -0.9601824754
 H          5.2978544004        2.2634331268       -1.1809691939
 H          4.1713830198        0.6461743926        1.5998551793
 H          2.6796693395        0.5394570465        3.3946252093
 H          0.4556962593       -0.1683246416        4.1953663904
 H         -1.2184589405       -1.0312897148        2.6000851720
 C         -1.0151620901       -1.3456553602       -0.0324068774
 H         -1.3369316303       -2.3306737994        0.3372929246
 C         -0.5560620299       -1.4934029832       -1.4669357270
 C          0.2704624600       -2.6774048842       -1.8674973444
 C         -1.1534067899       -2.5688225650       -2.3218209649
 H         -1.3486265597       -2.3518052971       -3.3612846553
 H         -1.8868097200       -3.2164452139       -1.8639714536
 H          1.0608434201       -2.5322539557       -2.5889229546
 H          0.5085482798       -3.4003664126       -1.1017244629
 H         -0.3412173798       -0.5411309442       -1.9403123489
 O         -3.5986987703       -2.2542488584        0.7566202341
