  62
        -98.95138032
 C         -1.8097123345       -1.2732113745       -0.2868235312
 C         -2.9105288231       -0.6061946723        0.2978113958
 C         -3.2441943621        0.7000342581       -0.2783360057
 C         -2.5256827332        1.1778490764       -1.3109696280
 C         -2.7291726693        2.5039766939       -1.9909295724
 C         -2.0308019226        3.6649603124       -1.2690345887
 C         -2.7100638628        4.1260091681        0.0212574719
 H         -2.2662931836        5.0866024030        0.2907270741
 H         -3.7717918310        4.2955806847       -0.1641411987
 C         -2.5359038113        3.1595224521        1.2011943486
 H         -2.2683875405        3.7254662076        2.0973500748
 H         -1.6986994234        2.4868738029        0.9961417270
 C         -3.7807020237        2.3383524481        1.5405896153
 H         -4.5725274107        3.0047255997        1.8914936013
 H         -3.5269638700        1.6576170608        2.3575755891
 C         -4.3285205226        1.5002632609        0.3781445410
 H         -5.0632191243        0.7979422725        0.7804608563
 H         -4.8212417225        2.1441657301       -0.3499633501
 H         -1.9949042169        4.5099874990       -1.9609847860
 H         -1.0027669228        3.3676746512       -1.0447665157
 H         -3.7947256980        2.7158606677       -2.0848234247
 H         -2.3009748881        2.4115558317       -2.9913186217
 O         -1.5078748286        0.4821919001       -1.8793606193
 C         -1.0910371053       -0.7263979724       -1.3492135781
 O         -0.0948976563       -1.2203157869       -1.9144431309
 O         -3.5737527546       -1.0760208518        1.2631910281
 C         -1.3174667308       -2.5720422424        0.3242258593
 C          0.1180315904       -2.4086285457        0.7625962861
 C          1.0785988050       -3.4035093452        0.6280136065
 C          2.3878173464       -3.1743417797        1.0164903531
 C          2.7738923626       -1.9444465909        1.5175556269
 C          1.8176092504       -0.9470826493        1.6653809594
 C          0.4998956216       -1.1965200041        1.3235606764
 H         -0.2280763648       -0.4088486481        1.4529489256
 N          2.1509074143        0.3463191117        2.1259331007
 S          2.0135903850        1.5663623249        0.9782933806
 O          2.4779692536        2.7653530794        1.6437012140
 O          0.6732141941        1.6059495932        0.4573724985
 C          3.1913934089        1.0934887869       -0.2751926960
 C          2.8390538076        0.1565594547       -1.2256169503
 C          3.8035717362       -0.2675826249       -2.1281868777
 C          5.0904485953        0.2430997398       -2.0642430093
 C          5.4264118317        1.1850454891       -1.1029795318
 C          4.4710056831        1.6104165443       -0.1951258556
 H          4.6835376278        2.3416900704        0.5682126169
 H          6.4268410514        1.5841370144       -1.0560976266
 H          5.8343740914       -0.0944318354       -2.7685953430
 H          3.5337064490       -0.9993508945       -2.8726875223
 H          1.8303244000       -0.2260832034       -1.2650663484
 H          3.0689163102        0.4013461148        2.5471905754
 H          3.8016566634       -1.7536460145        1.7878895352
 H          3.1221627570       -3.9572512277        0.9048848852
 H          0.8029952005       -4.3579299399        0.2098089670
 H         -1.9406233563       -2.7331209370        1.2171143539
 C         -1.5236751535       -3.7297976433       -0.6305790133
 C         -1.8043926435       -5.1061918361       -0.1074258737
 C         -2.8951421096       -4.3180343884       -0.7660335703
 H         -3.2332710196       -4.6182000657       -1.7463897932
 H         -3.6743271777       -3.9004705356       -0.1450806143
 H         -1.3954805833       -5.9526965250       -0.6382360997
 H         -1.8513466777       -5.2351756715        0.9633607689
 H         -0.9290116063       -3.6331910891       -1.5320727453
