  62
        -98.93520637
 C          2.2003845470        1.1352159061        0.6412023181
 C          2.2150016662        0.2172726452       -0.4359769589
 C          3.1060229360       -0.9522923817       -0.2913473582
 C          3.8113523427       -1.1181349381        0.8419391273
 C          4.7646143167       -2.2121502691        1.2761669341
 C          5.3266547012       -3.2070772017        0.2639858358
 C          6.2761884751       -2.6025226268       -0.7698585504
 H          7.1959307853       -2.3011396897       -0.2622543054
 H          6.5339885216       -3.3809273897       -1.4912415617
 C          5.7451753748       -1.3848302308       -1.5221835534
 H          6.5199061172       -1.0605578728       -2.2220965337
 H          5.5815346006       -0.5635109149       -0.8215425409
 C          4.4648070583       -1.6171456045       -2.3223363479
 H          4.2912897277       -0.7267690592       -2.9326991536
 H          4.6013233911       -2.4633527767       -2.9983445482
 C          3.1958756652       -1.8578195303       -1.4856625830
 H          2.3271844070       -1.6282062373       -2.1102992168
 H          3.1102190099       -2.8993649266       -1.1844286686
 H          4.5187392742       -3.7417685110       -0.2270534926
 H          5.8918819797       -3.9466830006        0.8377274858
 H          5.5951346510       -1.7009008715        1.7735385478
 H          4.2377424894       -2.7730413180        2.0562869075
 O          3.7043749598       -0.2433057058        1.8860210189
 C          2.9098392898        0.8871541480        1.8168013021
 O          2.9114775629        1.5760209041        2.8569546478
 H         -0.3033688955        0.6480450842        1.7165225512
 C         -0.7631242283        1.1073773175        0.8485967765
 C         -0.0436420345        2.0544500028        0.1295328275
 C         -0.6358829056        2.6268660850       -0.9876075713
 C         -1.9113142180        2.2508548276       -1.3718670771
 C         -2.6233779607        1.3083903564       -0.6533792128
 C         -2.0384967265        0.7258728022        0.4635507282
 N         -2.7568777239       -0.2250016530        1.2110748690
 S         -3.4798463820       -1.5029449074        0.3951672196
 O         -3.5999021308       -2.5540400727        1.3832861445
 O         -2.7699865426       -1.8392979862       -0.8168187105
 C         -5.1056714895       -0.8890624014        0.0062907354
 C         -5.8928536920       -0.4285633453        1.0435877133
 C         -7.1625605640        0.0477959158        0.7591929721
 C         -7.6222566773        0.0526554627       -0.5494809680
 C         -6.8213692498       -0.4170875078       -1.5790392885
 C         -5.5495745957       -0.8940750213       -1.3014320233
 H         -4.8888656603       -1.2635961227       -2.0696249633
 H         -7.1803344219       -0.4132396918       -2.5956946555
 H         -8.6107266623        0.4245224003       -0.7682884211
 H         -7.7883526750        0.4135827047        1.5572119924
 H         -5.4989320030       -0.4533758360        2.0458691476
 H         -2.2536337056       -0.5663248942        2.0174665425
 H         -3.6141950745        1.0100326689       -0.9545620864
 H         -2.3568616176        2.6969090928       -2.2479840002
 H         -0.0888281064        3.3456022276       -1.5749444381
 C          1.3454399310        2.3909516618        0.6146080497
 H          1.2636567156        2.6973022978        1.6709848219
 C          1.9789409548        3.5600650046       -0.1247217483
 C          3.4688813945        3.7015173156       -0.2084791115
 C          2.6746290983        3.3978124024       -1.4413514428
 H          2.5605258993        4.1778579142       -2.1799603824
 H          2.7274090403        2.4054032959       -1.8594554301
 H          4.0712216321        2.9140890661        0.2214900271
 H          3.8973563484        4.6864586223       -0.0988973468
 H          1.4194433346        4.4788897308        0.0211652325
 O          1.5232829107        0.3499758716       -1.4776856924
