  62
        -98.93677996
 C         -2.5121553373       -1.4616139580        0.1170645679
 C         -2.5583721645       -0.3586760322       -0.7687224902
 C         -3.6606647147        0.5915508735       -0.5541926303
 C         -4.5464772881        0.3791556724        0.4351629538
 C         -5.7601183139        1.2112243411        0.7553973285
 C         -5.4944614485        2.6496627953        1.2396157029
 C         -5.5201453860        3.7060730434        0.1281109400
 H         -6.1266737174        3.3326089530       -0.6978410652
 H         -6.0204264005        4.6002990919        0.5051643984
 C         -4.1532695952        4.1502579397       -0.4018679457
 H         -4.3160185481        4.6948499968       -1.3345100942
 H         -3.7023797819        4.8457325990        0.3097620355
 C         -3.1395666433        3.0332908503       -0.6521890425
 H         -2.7361637465        2.6811988376        0.3007012232
 H         -2.2946334328        3.4539056991       -1.2019950467
 C         -3.6982331986        1.8183530261       -1.4182871115
 H         -4.7125031085        2.0141791772       -1.7632068156
 H         -3.0724090836        1.6083272145       -2.2880608756
 H         -6.2807900063        2.8914379302        1.9563907566
 H         -4.5465966182        2.6840298565        1.7761788282
 H         -6.4067783470        1.2395731104       -0.1245046496
 H         -6.2871819374        0.6637994296        1.5394254179
 O         -4.4601659061       -0.6912988382        1.2711534717
 C         -3.4417256001       -1.6188877026        1.1481689330
 O         -3.4743182995       -2.5309537057        1.9980591880
 H          0.5381374069       -1.4419283011       -1.5823545073
 C          0.7731138206       -1.3689459949       -0.5326191977
 C         -0.1078739555       -1.8780059191        0.4075300663
 C          0.2021967972       -1.7373229327        1.7576548033
 C          1.3695728286       -1.1111319082        2.1509687689
 C          2.2486098156       -0.6045603478        1.2086144354
 C          1.9376800299       -0.7210259712       -0.1388103256
 N          2.8169748758       -0.2100360534       -1.1063716855
 S          3.5332652264        1.2846412516       -0.8586073969
 O          2.7057614377        2.1589859086       -0.0599071860
 O          3.8806785990        1.7586253285       -2.1807012038
 C          5.0307396279        0.8855248771        0.0209930517
 C          5.8415515976       -0.1090853307       -0.4900995457
 C          7.0149379491       -0.4245868415        0.1758618951
 C          7.3586279712        0.2583077929        1.3331225758
 C          6.5364453768        1.2571174485        1.8313258122
 C          5.3602969627        1.5764777858        1.1704372725
 H          4.6871775263        2.3409272189        1.5252704979
 H          6.8050919604        1.7874902500        2.7308123884
 H          8.2722898677        0.0105348142        1.8499778733
 H          7.6564141163       -1.2013111669       -0.2083171668
 H          5.5399181062       -0.6150143403       -1.3918816975
 H          2.4706772339       -0.2939350403       -2.0512452135
 H          3.1553730523       -0.1058502562        1.5094423545
 H          1.5994946653       -1.0140756364        3.2012352947
 H         -0.4937353697       -2.1161641899        2.4936157297
 C         -1.4194623725       -2.5150991583        0.0180428170
 H         -1.6652534201       -3.2718284255        0.7747584180
 C         -1.3987653806       -3.1786991501       -1.3431938521
 C         -0.6390204466       -4.4577339638       -1.5216547021
 C         -2.1373381271       -4.4669775363       -1.5390785834
 H         -2.6424995272       -4.6322071064       -2.4789669509
 H         -2.6574638156       -4.8791066792       -0.6866676495
 H         -0.1133697558       -4.6211989359       -2.4499554628
 H         -0.1400314482       -4.8638563704       -0.6549123532
 H         -1.4108497313       -2.4749650469       -2.1659240959
 O         -1.7393792936       -0.1719154742       -1.7075179118
