  62
        -98.94490965
 C         -1.8795564730       -1.0738686889       -0.2032098776
 C         -3.0224499477       -1.1608256780        0.6370937894
 C         -4.2526474868       -0.5430679226        0.1338371308
 C         -4.2550828666        0.0422192698       -1.0771424352
 C         -5.4355802854        0.6911404581       -1.7469768771
 C         -5.6785903426        2.1438757686       -1.3155049268
 C         -6.2397741265        2.3178307508        0.0963746865
 H         -6.5664993906        3.3558392801        0.1852908557
 H         -7.1219184809        1.6880223176        0.2157174048
 C         -5.2353785483        2.0193165571        1.2183950000
 H         -4.2210917828        2.0275154691        0.8120242330
 H         -5.2832139350        2.8106594822        1.9699248475
 C         -5.4678829228        0.6929346235        1.9422651911
 H         -4.6775056330        0.5670708463        2.6866404209
 H         -6.4243642906        0.7257459903        2.4686221935
 C         -5.4568396105       -0.5375719897        1.0260105891
 H         -6.3702274207       -0.5729319289        0.4325329810
 H         -5.4105543329       -1.4314354673        1.6528074950
 H         -4.7407915386        2.6972592763       -1.4052749553
 H         -6.3893611054        2.5787624000       -2.0220728437
 H         -6.3327914322        0.1003878717       -1.5598621803
 H         -5.2294713018        0.6806024308       -2.8194745455
 O         -3.1483388391        0.0898707454       -1.8616023590
 C         -1.9349809816       -0.4401416131       -1.4443767190
 O         -1.0186076540       -0.2776782640       -2.2767227855
 O         -3.0136621229       -1.7404383544        1.7550958376
 C         -0.6037697318       -1.7083653612        0.3250451223
 C          0.3389093494       -0.6768358874        0.8971186218
 C          0.6763219539       -0.6861865654        2.2452332963
 C          1.5675888705        0.2414637458        2.7571185942
 C          2.1408166240        1.1948749571        1.9353037362
 C          1.8033905228        1.2157493892        0.5881592381
 C          0.9153361343        0.2821917257        0.0760278622
 H          0.6539916400        0.3081204711       -0.9714081758
 N          2.3971462826        2.1732206170       -0.2617355966
 S          4.0722163946        2.1112260315       -0.3300415962
 O          4.6178539494        2.7628200949        0.8343344946
 O          4.4362070617        2.6855262591       -1.6058259300
 C          4.4478187547        0.3681844835       -0.2858950386
 C          4.1445800188       -0.3880948969       -1.4005223534
 C          4.3543496546       -1.7564506371       -1.3590100626
 C          4.8525572030       -2.3432031003       -0.2058334474
 C          5.1524189950       -1.5698238121        0.9045056671
 C          4.9468255732       -0.1999931217        0.8682871987
 H          5.1662622978        0.4380070360        1.7083896633
 H          5.5404166745       -2.0295198947        1.7989798773
 H          5.0084156139       -3.4100690908       -0.1735163068
 H          4.1237080375       -2.3580685535       -2.2237722902
 H          3.7599217540        0.1015929379       -2.2811886831
 H          2.0137123953        2.1518621581       -1.1965019609
 H          2.8430448298        1.9214453763        2.3111922567
 H          1.8194291277        0.2213288935        3.8063293984
 H          0.2263985237       -1.4220921619        2.8954323361
 H         -0.9313744824       -2.3542557705        1.1505117521
 C          0.1150297510       -2.5657070317       -0.6995042939
 C          1.0971590229       -3.5914531843       -0.2223873306
 C         -0.2160929392       -4.0229039868       -0.8015812975
 H         -0.2270942545       -4.4802092662       -1.7795927960
 H         -0.9677518248       -4.4130140409       -0.1308521191
 H          1.9932460062       -3.7521343006       -0.8007269888
 H          1.2377146689       -3.6891359483        0.8431456449
 H          0.3386714359       -2.0415806509       -1.6192597223
