  62
        -98.94301685
 C          2.3421546491        0.8947237097        0.4511437744
 C          2.5246385854       -0.1417083510       -0.4963134134
 C          3.5130245580       -1.1686879825       -0.1387311078
 C          4.1515611209       -1.1112860732        1.0432188143
 C          5.1596695498       -2.1016576782        1.5591389511
 C          6.5891066719       -1.8568114704        1.0565977334
 C          6.8306896458       -2.2044521792       -0.4128303015
 H          7.9108751092       -2.1928178735       -0.5712895687
 H          6.4844926105       -3.2201754402       -0.6066078074
 C          6.1760985906       -1.2365371973       -1.4083833261
 H          6.8951344732       -0.9741216349       -2.1877382106
 H          5.9095779910       -0.3100213554       -0.8945717763
 C          4.9337302458       -1.7894096230       -2.1068015295
 H          4.5319525518       -1.0097556081       -2.7591057541
 H          5.2129050162       -2.6402724911       -2.7323606564
 C          3.8165737600       -2.2309390623       -1.1523883602
 H          2.9107850323       -2.4005155011       -1.7397680874
 H          4.0911644141       -3.1620596267       -0.6573230653
 H          7.2578740184       -2.4680671084        1.6669317555
 H          6.8457338807       -0.8091930313        1.2300379877
 H          5.1568387627       -2.0081316838        2.6472243478
 H          4.8484084090       -3.1130718472        1.2964365790
 O          3.9270311988       -0.1173519728        1.9420487195
 C          3.0452477785        0.9105499385        1.6614894965
 O          2.9711115465        1.7740447358        2.5582868091
 H         -0.1559166338        0.2714212888       -1.0727630323
 C         -0.6898021952        0.7375891190       -0.2577913145
 C         -0.0378314638        1.6738944930        0.5317013728
 C         -0.7339570535        2.2548926431        1.5852163624
 C         -2.0476796831        1.9026261862        1.8400693246
 C         -2.6919120888        0.9636414460        1.0544652661
 C         -2.0049478266        0.3766443100       -0.0000955021
 N         -2.6360519857       -0.5993758712       -0.7890132590
 S         -4.1750590351       -0.2934170757       -1.3792846631
 O         -4.3081170319       -1.1327789027       -2.5498911164
 O         -4.3989128730        1.1203966843       -1.5746324852
 C         -5.2515395080       -0.9103023281       -0.1015660318
 C         -6.2332716206       -0.0950699000        0.4266231195
 C         -7.0671880704       -0.6018283149        1.4113656431
 C         -6.9061556157       -1.9080547239        1.8471028226
 C         -5.9169281268       -2.7148538977        1.3044878911
 C         -5.0808439164       -2.2146483494        0.3192322432
 H         -4.3024296119       -2.8090989644       -0.1294640770
 H         -5.7945071981       -3.7301930556        1.6458634677
 H         -7.5552367850       -2.3000968088        2.6141200224
 H         -7.8370909328        0.0233825659        1.8341995804
 H         -6.3178026363        0.9159279583        0.0608853324
 H         -2.0384999221       -0.9823086927       -1.5074996332
 H         -3.7145919575        0.6849123849        1.2494845535
 H         -2.5757651839        2.3619656505        2.6617468796
 H         -0.2333366145        2.9786614516        2.2120137611
 C          1.3923260962        2.0649877086        0.2425967083
 H          1.6873108012        2.8179688979        0.9855233573
 C          1.5150581969        2.6842884058       -1.1368563854
 C          1.0549787282        4.0945820002       -1.3429819866
 C          2.5186021397        3.7720816107       -1.3659679908
 H          3.0408361172        3.8007653160       -2.3105755842
 H          3.1219129482        4.0806112125       -0.5243154159
 H          0.5673960058        4.3464014360       -2.2723953048
 H          0.6662531964        4.6240052339       -0.4862171671
 H          1.3553411582        1.9802137717       -1.9427565967
 O          1.9069191997       -0.2345215596       -1.5918414518
