  62
        -98.93424043
 C         -2.5160329506       -0.5993670200        1.0344276614
 C         -3.5753692008       -1.0432387599        0.2041939016
 C         -4.8106898408       -0.2425994899        0.2618272620
 C         -4.8718515107        0.8333337499        1.0655557921
 C         -6.0444949207        1.7639848199        1.1702445525
 C         -5.9199976709        2.9294271400        0.1789436526
 C         -5.5892177412        2.4937954302       -1.2485755675
 H         -5.5575894714        3.3952489103       -1.8644232674
 H         -4.5870307112        2.0589119503       -1.2657795778
 C         -6.5853991213        1.4953975603       -1.8546396274
 H         -7.5180523712        1.5129190702       -1.2895804472
 H         -6.8183306415        1.8087028704       -2.8745398873
 C         -6.0705797813        0.0572646103       -1.9375563877
 H         -6.7547073214       -0.5126257796       -2.5720263777
 H         -5.0907795614        0.0465310504       -2.4217988079
 C         -5.9568625610       -0.6888442299       -0.6021972679
 H         -6.9007472809       -0.6157255600       -0.0582471376
 H         -5.7694639210       -1.7429951098       -0.8269712880
 H         -6.8580899209        3.4874848800        0.1828914229
 H         -5.1263779809        3.5953973200        0.5255138825
 H         -6.9606650707        1.2081605399        0.9804601526
 H         -6.0760977205        2.1638216898        2.1851704925
 O         -3.8364595105        1.2265401699        1.8510053620
 C         -2.6416995505        0.5296780199        1.8487317616
 O         -1.7749222704        0.9994254998        2.6141314615
 O         -3.5167045309       -2.0473113598       -0.5498646885
 C         -1.1685465106       -1.2986606999        1.1096608811
 C         -0.2314172508       -0.7776500498        0.0500744709
 C         -0.6082118811       -0.7254041596       -1.2880218390
 C          0.2715931787       -0.2529830295       -2.2450231891
 C          1.5376224187        0.1803904905       -1.8917617393
 C          1.9230544990        0.1358444704       -0.5587378194
 C          1.0391785592       -0.3447805598        0.3997329307
 H          1.3377841294       -0.3676116599        1.4396415407
 N          3.2037185691        0.5941845504       -0.1837810096
 S          4.5175134789       -0.1119651295       -0.9840636200
 O          4.5617817486        0.3957769207       -2.3309086699
 O          4.4592366490       -1.5516660395       -0.8504286401
 C          5.8767335191        0.5462664104       -0.0397723902
 C          6.3211353990        1.8238182105       -0.3219990401
 C          7.3586705491        2.3522855804        0.4291900898
 C          7.9303549794        1.5993551703        1.4442402196
 C          7.4748310395        0.3176778903        1.7139753195
 C          6.4364643993       -0.2165293897        0.9672662196
 H          6.0572744294       -1.2118011197        1.1360970896
 H          7.9234894697       -0.2663510098        2.5013951493
 H          8.7382255495        2.0128005303        2.0270763794
 H          7.7179715791        3.3471754405        0.2211238698
 H          5.8529203488        2.3681845306       -1.1252155899
 H          3.3420784293        0.5158084202        0.8158873804
 H          2.2324412186        0.5413920407       -2.6322084094
 H         -0.0316539716       -0.2208023793       -3.2810310290
 H         -1.5924126412       -1.0678823096       -1.5697072488
 H         -0.7523026204       -1.0082059001        2.0875131110
 C         -1.2820576706       -2.8175076199        1.1078740009
 C         -0.8479002808       -3.6880009498       -0.0285020993
 C         -0.0473116905       -3.6603735299        1.2365014305
 H         -0.0716078503       -4.5206104700        1.8881353304
 H          0.9069250095       -3.1548095799        1.2068536604
 H         -1.4489858008       -4.5568189598       -0.2487976993
 H         -0.4289160910       -3.2185902397       -0.9045814793
 H         -2.1552064404       -3.1534996800        1.6580019910
