  62
        -98.93531458
 C          2.2262412180       -0.7460079925        0.3954656790
 C          3.4712077497       -0.9687867911       -0.2382864859
 C          4.2985056287        0.2169290691       -0.5316763505
 C          3.8151763721        1.4338810315       -0.2195652430
 C          4.4832608141        2.7723728475       -0.3892788861
 C          5.5678912051        3.0314937456        0.6692350804
 C          6.4927280756        1.8489663748        0.9457348672
 H          7.1372887322        2.1214177007        1.7855662498
 H          5.8943843221        0.9924182200        1.2613287161
 C          7.3914467436        1.4392969736       -0.2185085067
 H          8.0536144621        0.6495492435        0.1453783972
 H          8.0150472428        2.2887177810       -0.5060751546
 C          6.6743088966        0.9191837512       -1.4660589430
 H          7.4283688884        0.4443669196       -2.1006398291
 H          6.2537477006        1.7358884576       -2.0466472196
 C          5.6080332157       -0.1374477280       -1.1946004628
 H          5.3361785775       -0.6102976157       -2.1462372507
 H          6.0444867357       -0.9405244298       -0.5898595624
 H          5.0688842074        3.2894944427        1.6064892907
 H          6.1584456504        3.8930714823        0.3533254863
 H          3.7022203927        3.5281487676       -0.2800948352
 H          4.8904641611        2.8612581561       -1.3920956887
 O          2.5951865716        1.6033898928        0.3657482120
 C          1.7720732407        0.5395633337        0.6864832132
 O          0.6953047881        0.8703905165        1.2203798219
 O          3.8884939402       -2.1185717808       -0.5436744601
 C          1.3496322859       -1.9480582298        0.7056786929
 C          0.1415517007       -1.8865622702       -0.1954866465
 C          0.2780300663       -2.2579818508       -1.5305877961
 C         -0.7855332538       -2.1474360668       -2.4056132413
 C         -2.0065226654       -1.6605805719       -1.9709681308
 C         -2.1492996947       -1.2786808814       -0.6444281996
 C         -1.0822324494       -1.4026155180        0.2371662241
 H         -1.2016219698       -1.0871134733        1.2614815341
 N         -3.3871924940       -0.7865137972       -0.1827664708
 S         -4.1675322358        0.3645262905       -1.1422615229
 O         -4.7991766253       -0.3152172077       -2.2461791394
 O         -3.2570959331        1.4307255146       -1.4985384583
 C         -5.4097607268        0.9515636808       -0.0079368687
 C         -6.6377264385        0.3191939970        0.0291991805
 C         -7.5900676598        0.7591499675        0.9348037604
 C         -7.2996069945        1.8165326024        1.7838763578
 C         -6.0622599722        2.4413180574        1.7348572845
 C         -5.1049024339        2.0058351176        0.8321538880
 H         -4.1329271217        2.4677352541        0.7546750377
 H         -5.8389259929        3.2640858179        2.3949341499
 H         -8.0422146444        2.1585616550        2.4873712240
 H         -8.5536253623        0.2774514953        0.9752480995
 H         -6.8193211847       -0.4927953480       -0.6552165690
 H         -3.3092507752       -0.4408681908        0.7650733865
 H         -2.8399595528       -1.5544165624       -2.6461678519
 H         -0.6654579412       -2.4385701845       -3.4385571298
 H          1.2368014169       -2.6203576899       -1.8753006475
 H          1.9459353435       -2.8243249108        0.4174987529
 C          1.0186389587       -2.0440036221        2.1796586704
 C          0.4620370781       -3.3242135900        2.7250508601
 C          1.8616650130       -2.9107548753        3.0642668927
 H          2.0714072535       -2.5712598905        4.0675267739
 H          2.6794705301       -3.4466149840        2.6053400478
 H         -0.2905627876       -3.2729648465        3.4968345635
 H          0.3277878512       -4.1412222194        2.0324964196
 H          0.6594945823       -1.1121913377        2.5996174942
