  62
        -98.94458176
 C          1.7092341105        0.3935064800        0.2478665594
 C          2.8415129108        0.3173531605        1.1033186691
 C          3.9430500707       -0.5465007396        0.6625705891
 C          3.8194285705       -1.2270457500       -0.4909906606
 C          4.8777470604       -2.1069105601       -1.0887187705
 C          5.7806668401       -1.3168139304       -2.0462864411
 C          6.3067211401       -0.0075315401       -1.4581914417
 H          6.9558717498        0.4484962697       -2.2087793121
 H          5.4681069200        0.6746537299       -1.3013543617
 C          7.0809208905       -0.1683982395       -0.1423890319
 H          7.3919476906       -1.2065231494       -0.0198589416
 H          7.9881335304        0.4372915206       -0.1937873424
 C          6.3155122508        0.2812431109        1.1036751682
 H          7.0222449910        0.3325262013        1.9361610279
 H          5.9210028006        1.2884207108        0.9475182879
 C          5.1591839110       -0.6267971991        1.5415256688
 H          4.8348698712       -0.2979484387        2.5331386688
 H          5.5103348011       -1.6577819190        1.6202186091
 H          6.6200978700       -1.9528704804       -2.3329404311
 H          5.2087852398       -1.0823111308       -2.9470696310
 H          4.3866199103       -2.9081264404       -1.6437204701
 H          5.4724299007       -2.5445934397       -0.2892072505
 O          2.7162602303       -1.1491418004       -1.2737495103
 C          1.6420833503       -0.3362792604       -0.9389159603
 O          0.7184480900       -0.3763347008       -1.7776175800
 O          2.9264329210        0.9535228909        2.1874354489
 C          0.5894155905        1.3181545401        0.6949457994
 C         -0.5589433092        0.5720191802        1.3301163000
 C         -1.0070399389        0.8953815306        2.6053784200
 C         -2.0913475887        0.2385738307        3.1622708805
 C         -2.7484932487       -0.7575761996        2.4618390111
 C         -2.3003716691       -1.0934265101        1.1918717311
 C         -1.2222413693       -0.4262732801        0.6311148606
 H         -0.8914789395       -0.6867062605       -0.3632171794
 N         -2.9742850692       -2.0993252804        0.4573435417
 S         -4.4941026694       -1.6354146008       -0.0806323581
 O         -5.3700027690       -1.5183394205        1.0573393121
 O         -4.8747771295       -2.6023199212       -1.0850569676
 C         -4.2286120697       -0.0341887510       -0.8187029487
 C         -3.8020040001        0.0249538285       -2.1300159289
 C         -3.5103967804        1.2602806883       -2.6846542294
 C         -3.6399192603        2.4073060586       -1.9171702898
 C         -4.0625686500        2.3303833791       -0.5991311697
 C         -4.3584775397        1.0980603192       -0.0400381091
 H         -4.6910999594        0.9946359396        0.9796461910
 H         -4.1574101899        3.2238576393       -0.0034809600
 H         -3.4100525206        3.3672935585       -2.3527988003
 H         -3.1755417307        1.3224830880       -3.7077837396
 H         -3.7148253702       -0.8900836517       -2.6941846686
 H         -2.4351567593       -2.4124768907       -0.3390465884
 H         -3.6042178586       -1.2702216296        2.8703487515
 H         -2.4279708284        0.5035596110        4.1528880405
 H         -0.4942360388        1.6631836209        3.1657171696
 H          1.0414226307        1.9550631104        1.4670229090
 C          0.0662722901        2.2100325296       -0.4158988908
 C         -0.5392724799        3.5329324797       -0.0602988711
 C          0.7958430899        3.4778495496       -0.7386228815
 H          0.8670657995        3.7814289592       -1.7721007816
 H          1.6757747300        3.7092412399       -0.1558471418
 H         -1.3889928701        3.8764434994       -0.6279542410
 H         -0.5646817897        3.8069307301        0.9832191988
 H         -0.3684129801        1.6593909992       -1.2401953305
