  62
        -98.93966183
 C          1.4873391946        1.5813554616        0.2411599788
 C          1.6764418188        0.4703742869        1.1007963334
 C          2.8881755412       -0.3443877500        0.8979148818
 C          3.7471834143        0.0120283635       -0.0749428017
 C          5.0211248817       -0.6846041633       -0.4676690640
 C          4.7718921517       -1.9425288648       -1.3239153739
 C          3.5220509978       -2.7408149890       -0.9560806511
 H          2.6639651878       -2.0659286413       -0.9493060701
 H          3.3492718993       -3.4736966883       -1.7484030409
 C          3.5977350318       -3.4994672031        0.3679983591
 H          2.6294764380       -3.9777727307        0.5377600594
 H          4.3449649753       -4.2916294552        0.2765157495
 C          3.9519122123       -2.6668634891        1.5992503705
 H          4.9879901434       -2.3430472364        1.5467897245
 H          3.8753701090       -3.3249063710        2.4702424987
 C          3.0337657361       -1.4789527665        1.8827685207
 H          3.3474274874       -1.0249193842        2.8315182782
 H          2.0169688765       -1.8464417987        2.0616595818
 H          5.6505191046       -2.5862273212       -1.2637988958
 H          4.6592583955       -1.6216718991       -2.3618068565
 H          5.6037539988        0.0272905442       -1.0558387113
 H          5.5927539643       -0.9210985085        0.4257278785
 O          3.5209894712        1.0769325445       -0.8891503873
 C          2.4026281978        1.8836393589       -0.7676289365
 O          2.3639352425        2.8068424990       -1.6033372562
 O          0.8604645629        0.1668897211        2.0141687217
 C          0.2427388676        2.4218697764        0.4739660098
 C         -0.8587133690        2.0248186125       -0.4797956342
 C         -0.7677038902        2.2727631698       -1.8459110639
 C         -1.7917173673        1.8923290448       -2.6933272504
 C         -2.9133887542        1.2460569934       -2.2028561503
 C         -3.0114065305        0.9885424692       -0.8410020000
 C         -1.9901704528        1.3890138648        0.0103373745
 H         -2.0843552039        1.1905301944        1.0671576075
 N         -4.1394020222        0.3398242638       -0.3120882744
 S         -3.9433413521       -0.8830738561        0.8155278009
 O         -5.2159649417       -1.5714745864        0.8170411945
 O         -3.5221165417       -0.3304213334        2.0763304224
 C         -2.6895800834       -1.9395808284        0.1154983633
 C         -3.0888491955       -2.8497028054       -0.8454197245
 C         -2.1356494055       -3.6435135304       -1.4605363787
 C         -0.7997552128       -3.5085385569       -1.1128178064
 C         -0.4177076109       -2.5924723926       -0.1465853855
 C         -1.3660101860       -1.7968837326        0.4775641785
 H         -1.0780903561       -1.0815622111        1.2322791176
 H          0.6185773612       -2.4800888114        0.1296799574
 H         -0.0520624224       -4.1200390170       -1.5930780289
 H         -2.4334167099       -4.3605376355       -2.2084943676
 H         -4.1384265656       -2.9300124014       -1.0782904040
 H         -4.8279341023        0.0782655614       -1.0032124859
 H         -3.7090220467        0.9460236780       -2.8676623416
 H         -1.7124405232        2.0939357720       -3.7508566015
 H          0.1170472376        2.7520706440       -2.2353429389
 H         -0.0927885511        2.1630630823        1.4879055246
 C          0.4998365213        3.9148706694        0.4260808323
 C         -0.4769985802        4.8364927304        1.0900930823
 C          0.8842278536        4.6325806721        1.6832996900
 H          1.6030936924        5.4355088751        1.6183290080
 H          0.9631556169        4.0492411773        2.5894543803
 H         -0.6960472207        5.7819100848        0.6182349597
 H         -1.3215582642        4.3904696282        1.5942912743
 H          0.9612526502        4.2474555794       -0.4940823392
