  62
        -98.93885379
 C         -1.9153878540       -1.0126615907       -0.2722327795
 C         -3.0300068855       -1.1073667969        0.5994944576
 C         -4.2706069808       -0.4162548213        0.2014123030
 C         -4.2861162376        0.2576371091       -0.9632743742
 C         -5.4066641080        1.0625216233       -1.5663080232
 C         -5.5935377614        2.4254184870       -0.8817113749
 C         -5.5596907116        2.3863317892        0.6437133748
 H         -4.6031893655        1.9743115987        0.9707708740
 H         -5.6066438314        3.4178602818        1.0028922411
 C         -6.6994291970        1.6104146029        1.2999196396
 H         -7.6531317010        2.0392444637        0.9843279650
 H         -6.6108448785        1.7576064605        2.3793623318
 C         -6.7279046320        0.1042108066        1.0288233715
 H         -7.1382431973       -0.1121871741        0.0460378036
 H         -7.4120610876       -0.3436087201        1.7554510016
 C         -5.3851436084       -0.5978799267        1.2032408879
 H         -4.9635451691       -0.3305780187        2.1789918166
 H         -5.5601859425       -1.6792827436        1.2534496622
 H         -4.7892229542        3.0855202922       -1.2161409306
 H         -6.5406254842        2.8519400043       -1.2166844355
 H         -5.1419172048        1.2327348566       -2.6123447589
 H         -6.3300903722        0.4913679367       -1.5476083609
 O         -3.1929648919        0.3203433424       -1.7734643428
 C         -1.9937414486       -0.2940850575       -1.4641252125
 O         -1.1104826539       -0.1178364333       -2.3291561264
 O         -2.9959379378       -1.7532840258        1.6813009240
 C         -0.6503519634       -1.7362798115        0.1579225341
 C          0.3603698826       -0.7832431032        0.7499022438
 C          0.7425875480       -0.8863133609        2.0821834602
 C          1.6829693091       -0.0220213276        2.6163512140
 C          2.2622456674        0.9593667165        1.8328960913
 C          1.8842844881        1.0710295658        0.5006417499
 C          0.9469409698        0.2000298495       -0.0345311202
 H          0.6511098942        0.2988309698       -1.0683284007
 N          2.4771048711        2.0591781553       -0.3074759473
 S          4.1509642254        2.1167353588       -0.2998649064
 O          4.6002489774        2.8645473312        0.8484225330
 O          4.5281379089        2.6546279060       -1.5880709161
 C          4.6633253004        0.4140416679       -0.1492424961
 C          4.2992461866       -0.4630039492       -1.1518555983
 C          4.6424724458       -1.7991755509       -1.0299159432
 C          5.3377969575       -2.2344422762        0.0878757886
 C          5.6995455740       -1.3406771644        1.0834826934
 C          5.3578463962       -0.0026683966        0.9677695571
 H          5.6151672499        0.7252836139        1.7196951360
 H          6.2415793153       -1.6817893182        1.9506496106
 H          5.5983453618       -3.2768058882        0.1815693798
 H          4.3623389228       -2.4947585698       -1.8046526705
 H          3.7603256911       -0.0935053588       -2.0098917697
 H          2.1179192562        2.0689643497       -1.2512651016
 H          2.9938945609        1.6445086225        2.2298059890
 H          1.9674722458       -0.1128593300        3.6533575513
 H          0.2863603697       -1.6428858241        2.7035776250
 H         -0.9719219835       -2.4182155878        0.9561947281
 C         -0.0246320408       -2.5581400973       -0.9530510449
 C          0.9197842453       -3.6641411065       -0.5937192830
 C         -0.4413837480       -3.9857219826       -1.1322746575
 H         -0.5242503953       -4.3755197430       -2.1357812793
 H         -1.1812680911       -4.3793588566       -0.4505711635
 H          1.7758703049       -3.8353354930       -1.2273715836
 H          1.1052747239       -3.8417405916        0.4544488745
 H          0.1829160261       -1.9860951584       -1.8477606205
