  62
        -98.94081945
 C         -2.3194422394       -1.0586355098        0.0561721202
 C         -2.1430146395        0.1624120700       -0.6392373701
 C         -2.8224618895        1.3311914301       -0.0643295604
 C         -3.5155948194        1.2152044904        1.0818167497
 C         -4.2257009994        2.3246457806        1.8087972294
 C         -5.6315699594        2.6275997204        1.2722168094
 C         -5.6732697195        3.3366681201       -0.0819860308
 H         -6.6981993195        3.6819572900       -0.2309196308
 H         -5.0338201495        4.2192732001       -0.0478659010
 C         -5.2721979195        2.4531789298       -1.2714687206
 H         -5.3165331395        1.4025443299       -0.9757709803
 H         -5.9896593295        2.5881727796       -2.0838623906
 C         -3.8839083595        2.7478678197       -1.8393851607
 H         -3.8655970896        3.7559017196       -2.2595218509
 H         -3.6872076496        2.0409935095       -2.6493362105
 C         -2.7465067595        2.6255178699       -0.8171125307
 H         -1.7945881195        2.6419384098       -1.3538679007
 H         -2.7681954595        3.4676981301       -0.1256352109
 H         -6.1906390894        1.6911318404        1.2109935797
 H         -6.1289228894        3.2643243706        2.0074399493
 H         -4.3152946694        2.0044311208        2.8491682395
 H         -3.6181800994        3.2298008906        1.7765130492
 O         -3.6325415194        0.0332723806        1.7428579800
 C         -3.0575952194       -1.1214804396        1.2432266402
 O         -3.2716326093       -2.1359172594        1.9371441805
 O         -1.4556644295        0.3020784898       -1.6872455402
 C         -1.7032450094       -2.3782249699       -0.3882061195
 C         -0.2619987194       -2.4524830098        0.0572296105
 C          0.1575788806       -3.4070078896        0.9758805707
 C          1.4713945607       -3.4378529495        1.4109856106
 C          2.3912465906       -2.5152510496        0.9451786204
 C          1.9780970206       -1.5533570998        0.0339222002
 C          0.6663014806       -1.5348156299       -0.4136981198
 H          0.3513270605       -0.7758310601       -1.1150751900
 N          2.9050939406       -0.5863937899       -0.4293565801
 S          3.3444899906        0.5899849604        0.7052513096
 O          3.5507310806       -0.0450521293        1.9816026797
 O          2.3928790906        1.6824809004        0.6752418294
 C          4.9045172406        1.1328269103        0.0365469694
 C          6.0318534206        0.3780648603        0.2963345495
 C          7.2425970405        0.7722294002       -0.2499005606
 C          7.3049085005        1.9070235900       -1.0450119609
 C          6.1645888105        2.6544030100       -1.2968891610
 C          4.9504411505        2.2647449401       -0.7533594309
 H          4.0405128605        2.8201350500       -0.9154066810
 H          6.2155540804        3.5373320498       -1.9136162112
 H          8.2483116705        2.2124075299       -1.4693219010
 H          8.1318207106        0.1948680103       -0.0546117705
 H          5.9371141506       -0.4910359195        0.9258759398
 H          2.5329438505       -0.0938462301       -1.2325537902
 H          3.4098242506       -2.5149792695        1.2956140803
 H          1.7807438907       -4.1852603393        2.1258710308
 H         -0.5603716993       -4.1143727495        1.3654178709
 H         -2.2589008894       -3.1595763198        0.1474031607
 C         -1.8349753495       -2.6321939403       -1.8770409994
 C         -1.7569884795       -4.0403217704       -2.3817822591
 C         -3.0652417695       -3.3092902304       -2.3978175492
 H         -3.4676945595       -2.9864455807       -3.3461979793
 H         -3.8192998294       -3.5962919503       -1.6790958691
 H         -1.2584454195       -4.2231303706       -3.3211575091
 H         -1.6253723894       -4.8259245502       -1.6531796089
 H         -1.4024620295       -1.8514651004       -2.4881487596
