  62
        -98.93768816
 C          1.9379185094        0.9630712895        0.0089913085
 C          2.4072298295       -0.3637545603        0.1507099397
 C          3.8267922496       -0.5145672798        0.5186488195
 C          4.5811060396        0.5807036905        0.7120044783
 C          6.0296773597        0.6609071511        1.1244865179
 C          7.0118456396       -0.3080534595        0.4512114086
 C          6.6705737893       -0.6769862510       -0.9998843310
 H          5.8869608291       -0.0194218914       -1.3801063614
 H          7.5543807891       -0.5239747615       -1.6220315113
 C          6.2332754994       -2.1353363412       -1.1579237594
 H          6.8914843896       -2.7654879105       -0.5557216389
 H          6.3644351092       -2.4303686422       -2.2018690491
 C          4.7807958895       -2.4299461510       -0.7844608788
 H          4.1099118693       -1.9905630318       -1.5278450491
 H          4.6354886896       -3.5122925310       -0.8247560677
 C          4.3363524698       -1.9247641696        0.5979029608
 H          3.4873272099       -2.5338431994        0.9205798116
 H          5.1343169800       -2.0254954888        1.3296181307
 H          7.0843684698       -1.2211580689        1.0404155195
 H          7.9944283396        0.1655813106        0.4843066879
 H          6.3278966195        1.6903420709        0.9123036668
 H          6.0825918699        0.5272809621        2.2088261080
 O          4.0801052994        1.8418714803        0.5806814071
 C          2.7619889193        2.0662828898        0.2253213372
 O          2.4485422492        3.2710673997        0.1409487461
 H         -1.4871183206       -0.6985655215       -0.7119549990
 C         -1.3789388404       -0.3504273705        0.3008073106
 C         -0.4304588805        0.6047881399        0.6270272994
 C         -0.3130473402        1.0033708312        1.9571322390
 C         -1.1135011299        0.4473586421        2.9348435998
 C         -2.0565373699       -0.5113971683        2.6059773909
 C         -2.1847007801       -0.9142695996        1.2827519614
 N         -3.1168992901       -1.9027917001        0.9312448926
 S         -4.0765359805       -1.7525552015       -0.4269807874
 O         -5.1012527203       -2.7584956615       -0.2554573561
 O         -3.2810386907       -1.8487068826       -1.6233142774
 C         -4.7980594006       -0.1278082915       -0.2864550388
 C         -5.9186287204        0.0242082592        0.5072794913
 C         -6.4569271105        1.2896455693        0.6732043702
 C         -5.8629386508        2.3782979188        0.0524571490
 C         -4.7386032409        2.2088968381       -0.7404007211
 C         -4.1975123409        0.9445416180       -0.9139404600
 H         -3.3281890810        0.7749031975       -1.5270715600
 H         -4.2792619411        3.0558444677       -1.2247901421
 H         -6.2796978808        3.3643797689        0.1841153481
 H         -7.3344166404        1.4240919698        1.2849643803
 H         -6.3553091102       -0.8500484004        0.9622893223
 H         -3.6497991299       -2.2681895294        1.7066529231
 H         -2.6775848396       -0.9544495476        3.3696366415
 H         -1.0056691697        0.7622145832        3.9618524194
 H          0.4275195498        1.7497428316        2.2117992081
 C          0.4955755492        1.2268915690       -0.3890115014
 H          0.3677412791        2.3182270790       -0.3454938024
 C          0.2517478590        0.7662482976       -1.8101865809
 C         -0.7939344813        1.4369099366       -2.6474444613
 C          0.6587579086        1.6599949765       -2.9414569319
 H          1.0834986084        1.2107095156       -3.8266768715
 H          1.0917124186        2.6165603368       -2.6862819129
 H         -1.3711066014        0.8331909159       -3.3325203806
 H         -1.3423363413        2.2519841470       -2.1992833020
 H          0.4050909890       -0.2989693726       -1.9417179799
 O          1.6812783596       -1.3785417005       -0.0128749491
