  62
        -98.94066905
 C         -1.7431959982       -0.3724582364        0.4436415342
 C         -2.9224181021       -0.5301063712        1.2157325565
 C         -4.1652105290       -0.7369997545        0.4646604739
 C         -4.1349178657       -0.7551228858       -0.8800632098
 C         -5.3136997437       -0.9729253760       -1.7895462926
 C         -6.1295380846        0.2968972804       -2.0686025063
 C         -6.9808435548        0.7939040433       -0.8994394227
 H         -7.5925146365       -0.0261219457       -0.5219217099
 H         -7.6602865613        1.5506065020       -1.2967839925
 C         -6.1757746225        1.4110298183        0.2527998778
 H         -6.6429466394        2.3486329348        0.5627028358
 H         -5.1698124693        1.6557972528       -0.0962969268
 C         -6.0671198957        0.5270318191        1.4953241835
 H         -7.0581990486        0.3849445729        1.9319521800
 H         -5.4464317943        1.0445337366        2.2313918634
 C         -5.4446587596       -0.8513200516        1.2371641305
 H         -6.1520772092       -1.4906919619        0.7094438381
 H         -5.2114072822       -1.3076077442        2.2023993292
 H         -6.7950110936        0.0786136590       -2.9070053926
 H         -5.4463201294        1.0887538680       -2.3844039002
 H         -5.9648985296       -1.7396826342       -1.3688779524
 H         -4.9118304163       -1.3383145795       -2.7369746723
 O         -2.9866683275       -0.5861293658       -1.5857942569
 C         -1.7685841226       -0.3670118586       -0.9520589440
 O         -0.8198042773       -0.1905394291       -1.7375971631
 O         -2.9348589623       -0.4952473078        2.4751283001
 C         -0.4437602259       -0.1296424134        1.1893073394
 C          0.2990358031        1.0366374139        0.5877960643
 C         -0.3578277617        2.2596344311        0.4686227580
 C          0.2761492329        3.3526996514       -0.0865310634
 C          1.5916238359        3.2603700323       -0.5084139667
 C          2.2605223184        2.0511631292       -0.3810292846
 C          1.6116514826        0.9473584533        0.1555621519
 H          2.1436404201        0.0134939351        0.2168215293
 N          3.5959347889        1.9130633075       -0.7923320668
 S          4.6664645724        1.1238324122        0.2246626118
 O          4.3157586599        1.3161417290        1.6130254593
 O          5.9731264660        1.6052707436       -0.1717154366
 C          4.5401347215       -0.5984546991       -0.2056003081
 C          4.4745650798       -1.5411546912        0.8012427939
 C          4.4250529425       -2.8839102649        0.4610540824
 C          4.4437606199       -3.2579723262       -0.8740551551
 C          4.5096703086       -2.2983702825       -1.8730101480
 C          4.5618563377       -0.9545403523       -1.5393311095
 H          4.6136353493       -0.1822132692       -2.2883672128
 H          4.5195397067       -2.5937096778       -2.9097903827
 H          4.4027807983       -4.3033757873       -1.1368407288
 H          4.3702216927       -3.6311281587        1.2368988185
 H          4.4535806239       -1.2046912340        1.8257053098
 H          4.0066097444        2.7482492664       -1.1841208049
 H          2.0923304801        4.1158488316       -0.9363864039
 H         -0.2521361047        4.2895364315       -0.1837034556
 H         -1.3823483111        2.3367999965        0.8079554620
 H         -0.7641708719        0.1670385668        2.2030770054
 C          0.4222377682       -1.3693544351        1.3572427606
 C         -0.1782500880       -2.7423937268        1.3513624764
 C          0.7029273350       -2.3058508931        0.2215511565
 H          1.6914172008       -2.7345125271        0.1445863642
 H          0.2493943264       -2.0807995587       -0.7305178778
 H          0.2026446992       -3.4698563748        2.0521692619
 H         -1.2403175376       -2.8239175066        1.1708938793
 H          1.2315979197       -1.2029367206        2.0626335313
