  62
        -98.93752529
 C         -2.3168506774       -0.6964756009        0.0618623401
 C         -3.3296626525       -0.3731426259        0.9974919047
 C         -4.2801387144        0.6843036667        0.6131745532
 C         -4.1401292577        1.2931418903       -0.5792192996
 C         -4.9150040991        2.4260282168       -1.2196317468
 C         -6.2555839906        2.8776218987       -0.6465605210
 C         -7.3876679768        1.8613592825       -0.7945695234
 H         -8.2601839037        2.2401070509       -0.2579055727
 H         -7.6533324338        1.7899484009       -1.8523648802
 C         -7.0756140702        0.4501125329       -0.3030915208
 H         -6.2603744481        0.0275137043       -0.8939426015
 H         -7.9582030410       -0.1695033888       -0.4838454586
 C         -6.7249131129        0.3364911459        1.1790049421
 H         -6.6783579407       -0.7277330644        1.4254765597
 H         -7.5188904069        0.7839028347        1.7800944331
 C         -5.3836420286        0.9661163917        1.5921157207
 H         -5.4843776505        2.0355092748        1.7607519147
 H         -5.0755558728        0.5129338854        2.5388280064
 H         -6.5442432923        3.7750137601       -1.2005506584
 H         -6.1403962954        3.1734388196        0.3919686430
 H         -5.0520662867        2.1385491996       -2.2669914188
 H         -4.2332737851        3.2836855591       -1.2236087573
 O         -3.1370672338        0.9580467333       -1.4420471993
 C         -2.2113466689       -0.0329202300       -1.1587264815
 O         -1.3775087424       -0.2157151413       -2.0664639050
 O         -3.4349089583       -0.9430382456        2.1162238245
 C         -1.3182866289       -1.7785818083        0.4377851044
 C          0.0208783197       -1.1354485130        0.7024767921
 C          0.2929017271       -0.6206670082        1.9669335020
 C          1.4988937506        0.0007884312        2.2316355208
 C          2.4555988312        0.1308057300        1.2398667499
 C          2.1917267538       -0.3732196660       -0.0262965974
 C          0.9853698759       -1.0110321024       -0.2856435193
 H          0.7863937264       -1.3851057668       -1.2777190009
 N          3.1457476320       -0.2188587504       -1.0462029448
 S          4.7287558894       -0.6810568924       -0.7447562564
 O          5.2941530072       -0.9775368442       -2.0429338449
 O          4.7928142253       -1.7365780694        0.2397539070
 C          5.4922001276        0.7951265318       -0.1049397504
 C          5.4441926522        1.9395179500       -0.8766617373
 C          6.0377337697        3.0958670923       -0.3964229650
 C          6.6683106431        3.0878111806        0.8389940210
 C          6.7118429637        1.9296379296        1.5998221119
 C          6.1192964488        0.7696536439        1.1253084315
 H          6.1241768256       -0.1527949438        1.6838962057
 H          7.2033334914        1.9253091743        2.5594528434
 H          7.1287031577        3.9896897120        1.2105113865
 H          6.0061663871        3.9982611816       -0.9856051372
 H          4.9471933105        1.9033294707       -1.8318559061
 H          2.8314910628       -0.5490972030       -1.9470050078
 H          3.3966150469        0.6177823033        1.4372527171
 H          1.6966451692        0.3910037124        3.2184142749
 H         -0.4593909323       -0.7087855260        2.7382398157
 H         -1.6858104955       -2.1923859098        1.3864905142
 C         -1.2623576706       -2.8927214178       -0.5868554264
 C         -0.5766423019       -4.1769285204       -0.2308750590
 C         -2.0685941155       -4.1355679128       -0.3645908487
 H         -2.5236214737       -4.6136109861       -1.2191657107
 H         -2.6636475675       -4.1917458282        0.5350656094
 H         -0.0039232942       -4.6855671203       -0.9915193715
 H         -0.1564494177       -4.2577622417        0.7603652790
 H         -1.1753384083       -2.5387128910       -1.6067756099
