  62
        -98.94240960
 C         -0.9928994080       -1.2937507563        0.2446331814
 C         -1.4919197010       -0.1660699506        0.9339224451
 C         -2.3243322213        0.7661917563        0.1532695766
 C         -2.5211049432        0.5174992610       -1.1547658357
 C         -3.3912493808        1.3146261428       -2.0851709868
 C         -4.8881576171        0.9661521307       -1.9235055536
 C         -5.3139669010        0.5506743617       -0.5139830507
 H         -6.3102255550        0.1059468964       -0.5834654026
 H         -4.6409785019       -0.2308388539       -0.1554989587
 C         -5.3818261479        1.6829638786        0.5118021501
 H         -5.5255094040        1.2352511202        1.4980600377
 H         -6.2586238425        2.2982768615        0.2942496912
 C         -4.1717295616        2.6121137116        0.5613523665
 H         -4.3644340646        3.3601761812        1.3362920824
 H         -4.0898494462        3.1522436276       -0.3787594167
 C         -2.8374722695        1.9575066141        0.9243492081
 H         -2.0629899368        2.7333955177        0.8779422723
 H         -2.8750711043        1.6234319091        1.9667547617
 H         -5.1054961935        0.1266350742       -2.5871822131
 H         -5.4863045056        1.8173175648       -2.2512091275
 H         -3.0799528980        1.0740789457       -3.1036611740
 H         -3.2071507656        2.3741276710       -1.9251638620
 O         -2.0001931384       -0.5670168577       -1.7881399287
 C         -1.2163952860       -1.4894968257       -1.1179894767
 O         -0.8015729914       -2.4270590561       -1.8267035298
 O         -1.2606817695        0.0511512529        2.1547798046
 C         -0.1207690569       -2.2903332002        0.9881306124
 C          1.2330753892       -2.3524425317        0.3252004841
 C          1.8804918869       -3.5339175733       -0.0090377473
 C          3.0968968309       -3.4984319798       -0.6696391128
 C          3.6808533455       -2.2957963745       -1.0211706038
 C          3.0488067328       -1.1063658042       -0.6733759615
 C          1.8525307387       -1.1464954809        0.0210018065
 H          1.3624942658       -0.2234542217        0.2905084029
 N          3.6156635444        0.1345243572       -0.9947473628
 S          2.6538420229        1.4740450253       -1.2742909365
 O          1.3934730362        1.1331575239       -1.8926286887
 O          3.5096756644        2.3673389144       -2.0281720696
 C          2.4014330359        2.1564945836        0.3496963125
 C          1.1196024260        2.3668180168        0.8150329598
 C          0.9433092526        2.8856208895        2.0878087731
 C          2.0494233774        3.1914103764        2.8652164073
 C          3.3320945272        2.9854579921        2.3792151229
 C          3.5135306345        2.4612394808        1.1098633559
 H          4.4920012292        2.2856309770        0.6952734018
 H          4.1886569294        3.2267413972        2.9877231538
 H          1.9074241064        3.5912483211        3.8567928342
 H         -0.0551685241        3.0283622990        2.4690167207
 H          0.2849757820        2.1031996169        0.1821201829
 H          4.4156536651        0.0981414816       -1.6088144227
 H          4.6132865834       -2.2726119404       -1.5642772291
 H          3.5877544736       -4.4231245889       -0.9331132191
 H          1.4275426120       -4.4818467166        0.2306886549
 H          0.0043400348       -1.8759540893        1.9996540999
 C         -0.8114037112       -3.6336505350        1.0900564574
 C         -0.5179667702       -4.5494972206        2.2397195555
 C         -1.8362563105       -3.8416211012        2.1632550989
 H         -2.7200636079       -4.4153665079        1.9276994201
 H         -2.0172992209       -3.0192974717        2.8398678850
 H         -0.4984427358       -5.6135928574        2.0588424403
 H          0.1950299138       -4.2128879705        2.9767893979
 H         -1.0075398625       -4.0735484917        0.1183999809
