  62
        -98.94514243
 C         -1.5343340781       -0.7483241895       -0.5216368727
 C         -2.8303470069       -1.3112528054       -0.5839612174
 C         -3.9400089371       -0.3518692497       -0.6250726725
 C         -3.6811006364        0.9686951639       -0.6225060475
 C         -4.7046072738        2.0699995576       -0.6873909677
 C         -5.3124842250        2.4381058911        0.6730045761
 C         -6.2903626725        1.4123124279        1.2473717507
 H         -6.8012713527        1.8904407326        2.0855556002
 H         -7.0469168260        1.1738853173        0.4990880809
 C         -5.6307427152        0.1186642942        1.7452538028
 H         -4.5585501709        0.2833989158        1.8749876182
 H         -6.0350271959       -0.1425533456        2.7258936344
 C         -5.8386700949       -1.0905197546        0.8332344124
 H         -6.9000769161       -1.3463860898        0.7998661854
 H         -5.3017395085       -1.9404602116        1.2624611157
 C         -5.3384695409       -0.8911356455       -0.6036044180
 H         -6.0116616733       -0.2288057968       -1.1475280748
 H         -5.3272838303       -1.8643141411       -1.1007446770
 H         -5.8447207108        3.3838249383        0.5472226043
 H         -4.5005766351        2.6054540573        1.3844587108
 H         -4.1906970999        2.9484810157       -1.0831308556
 H         -5.5000038527        1.7916484763       -1.3792766615
 O         -2.4180633258        1.4694658908       -0.5779176249
 C         -1.3143299767        0.6296361750       -0.5047666222
 O         -0.2220352968        1.2202329924       -0.4358110697
 O         -3.0492899102       -2.5528004221       -0.6018609820
 C         -0.3291428489       -1.6684232325       -0.4700460279
 C          0.5084054578       -1.3595101127        0.7453718948
 C         -0.1139861068       -1.2392687500        1.9858105226
 C          0.6165623672       -0.9291570151        3.1156715171
 C          1.9828191314       -0.7217727708        3.0338817330
 C          2.6162331998       -0.8571901132        1.8051824009
 C          1.8813724317       -1.1887354251        0.6743694391
 H          2.4020889199       -1.3125149785       -0.2591662671
 N          3.9998296581       -0.6746118815        1.6927438116
 S          4.6931991770       -0.1342312021        0.2750437308
 O          4.7562453486       -1.2079414038       -0.6853992818
 O          5.9710274062        0.4026530622        0.6941444442
 C          3.6605478648        1.1823049919       -0.3410018153
 C          3.3581548876        2.2351061162        0.4979989860
 C          2.5739779688        3.2696746683        0.0170104061
 C          2.1108256698        3.2368658117       -1.2881897767
 C          2.4283563212        2.1761532827       -2.1198752749
 C          3.2093096538        1.1367656709       -1.6433616522
 H          3.4722510277        0.2880418129       -2.2555262164
 H          2.0605333559        2.1500921241       -3.1336614794
 H          1.4915125818        4.0386508692       -1.6578804900
 H          2.3183778714        4.0946885662        0.6624935325
 H          3.7353721747        2.2368105117        1.5080043360
 H          4.4578607373       -0.3038050412        2.5113468493
 H          2.5530976853       -0.4638461922        3.9129869338
 H          0.1183235551       -0.8363966279        4.0690636722
 H         -1.1837969853       -1.3860197100        2.0492634385
 H         -0.7356941447       -2.6855559571       -0.3659162740
 C          0.4462786727       -1.5813810118       -1.7679326724
 C          1.2566257039       -2.7475416930       -2.2465686408
 C         -0.0121378309       -2.3759547328       -2.9522730030
 H          0.0528926063       -1.9266972398       -3.9318621663
 H         -0.8761813934       -3.0106535677       -2.8196859371
 H          2.2004442769       -2.5567885652       -2.7358086947
 H          1.2557767635       -3.6393309926       -1.6379683579
 H          0.8282043504       -0.5828204636       -1.9521018626
