  62
        -98.93434926
 C          1.1294841801        1.3457806103        0.7290641095
 C          1.4029721000        0.6026467903       -0.4464454705
 C          2.3634402603       -0.5041801496       -0.2904732806
 C          2.7862592005       -0.8569743994        0.9349230394
 C          3.7132462308       -1.9926755792        1.2774535493
 C          5.1664029107       -1.8491403690        0.7841815591
 C          5.4431154706       -2.5134884990       -0.5702073109
 H          6.4264085207       -2.9868934488       -0.5329976710
 H          4.7177694907       -3.3133455492       -0.7242218707
 C          5.4442043802       -1.5813605291       -1.7858892910
 H          6.3872100001       -1.0303914489       -1.8112376611
 H          5.4043146902       -2.2031576992       -2.6829485209
 C          4.3130644300       -0.5541349893       -1.8446291209
 H          4.5153824200        0.2536604308       -1.1369115209
 H          4.3177727998       -0.1011881194       -2.8381581009
 C          2.9117144902       -1.1221067095       -1.5438802106
 H          2.2230148300       -0.8591805097       -2.3486608005
 H          2.9529403704       -2.2067408595       -1.4626781805
 H          5.8029370009       -2.3246373588        1.5321860490
 H          5.4385815405       -0.7942162789        0.7543319290
 H          3.7122337009       -2.0512832191        2.3677174093
 H          3.2923089509       -2.9240167993        0.8926389095
 O          2.3640283906       -0.2160991194        2.0600545594
 C          1.5733281103        0.9167602105        1.9827145194
 O          1.3176199804        1.4355759205        3.0891379994
 H         -1.6950624897        1.1111741398        1.6839946899
 C         -1.9518714300        1.4872629997        0.7006067299
 C         -1.0450036502        2.3018463398        0.0336913197
 C         -1.3765943805        2.7697957997       -1.2302039603
 C         -2.5844020905        2.4214566394       -1.8099346200
 C         -3.4879337802        1.6148154993       -1.1412915499
 C         -3.1663627600        1.1473336095        0.1260546001
 N         -4.0828819897        0.3201912393        0.8166574003
 S         -4.3383175195       -1.1916038708        0.1421149605
 O         -5.0048359798       -1.0309793610       -1.1239205694
 O         -5.0452048893       -1.9516866208        1.1477574106
 C         -2.7024480295       -1.8576836505       -0.0984465197
 C         -2.1155674392       -2.5569325703        0.9372414502
 C         -0.8200315791       -3.0213883401        0.7817418901
 C         -0.1365173193       -2.7707675500       -0.3978317400
 C         -0.7364129596       -2.0601277902       -1.4252606600
 C         -2.0320588397       -1.5940141104       -1.2755969698
 H         -2.5301084499       -1.0367513506       -2.0519094598
 H         -0.1964316298       -1.8532533002       -2.3344470101
 H          0.8721410907       -3.1316748598       -0.5176757702
 H         -0.3463404389       -3.5715917799        1.5792367900
 H         -2.6856089190       -2.7369488303        1.8349538303
 H         -3.8450003396        0.2045553595        1.7923614903
 H         -4.4264967303        1.3243272391       -1.5849444597
 H         -2.8258870607        2.7826054193       -2.7980848300
 H         -0.6747159507        3.3832543098       -1.7705972504
 C          0.2660776598        2.5966791601        0.7158685595
 H          0.0503995200        2.7984214602        1.7776277695
 C          0.9597073795        3.8389138102        0.1773401893
 C          2.4133682695        4.0768849905        0.4571626791
 C          1.9528284194        3.8132020203       -0.9433655908
 H          1.9494180191        4.6371994303       -1.6420812209
 H          2.1858484595        2.8624632203       -1.3939542108
 H          2.7330805394        5.0741432706        0.7195309990
 H          2.9521523498        3.2952834006        0.9740040391
 H          0.3119190694        4.7089437201        0.2295096794
 O          0.8968052598        0.8373270301       -1.5709507705
