  62
        -98.94112703
 C          1.6600204659        1.3550420096        0.3526552922
 C          1.3929297259        0.3160394059       -0.5681166653
 C          2.0828639255       -0.9638886855       -0.3377165972
 C          2.8655926004       -1.1059447352        0.7473493729
 C          3.6285154314       -2.3030906538        1.2754630114
 C          3.8908683780       -3.5166192869        0.3873516661
 C          4.8286453621       -3.2579551916       -0.7909299632
 H          5.8316217755       -3.0664594274       -0.4014905660
 H          4.8733981362       -4.1666953480       -1.3950561527
 C          4.4475051450       -2.0829229142       -1.6875472985
 H          4.5093642144       -1.1529427865       -1.1187334566
 H          5.1881020829       -2.0207714697       -2.4893491151
 C          3.0671836513       -2.1777666087       -2.3349248152
 H          2.9726926341       -3.1295655290       -2.8607924752
 H          2.9972945898       -1.3769291235       -3.0755161230
 C          1.8711287022       -2.0255237183       -1.3774987072
 H          1.0040726366       -1.7089188411       -1.9645259495
 H          1.6090711863       -2.9700277463       -0.9054474288
 H          4.3600949073       -4.2712087801        1.0248023251
 H          2.9507741855       -3.9372960138        0.0424884937
 H          4.5840728620       -1.9113553488        1.6393918626
 H          3.0732260244       -2.6363827702        2.1599722504
 O          3.0486879050       -0.0892418359        1.6423589083
 C          2.4544732522        1.1483636453        1.4759355095
 O          2.7037841054        1.9676971734        2.3864111839
 H         -0.4010921753        1.2192320908        1.9018995536
 C         -1.0520701746        1.6339192615        1.1410176010
 C         -0.5175190783        2.4722538453        0.1697742418
 C         -1.3720981415        2.9976697317       -0.7902448146
 C         -2.7134397132        2.6532698821       -0.8030040723
 C         -3.2242426857        1.7632119007        0.1245062226
 C         -2.3819235898        1.2570847600        1.1047672355
 N         -2.8856361345        0.2654976930        2.0006346385
 S         -2.4152817890       -1.2703741918        1.4654284313
 O         -3.0279361119       -2.2089594707        2.3829873087
 O         -0.9750988731       -1.3754230704        1.3519001254
 C         -3.1959709528       -1.3622419077       -0.1269692953
 C         -2.4991515766       -0.9698887542       -1.2526185501
 C         -3.1491642836       -0.9956453401       -2.4771563834
 C         -4.4712368338       -1.4057513387       -2.5532843092
 C         -5.1555798047       -1.7953997147       -1.4113761550
 C         -4.5144881478       -1.7712274575       -0.1836820659
 H         -5.0008702613       -2.0645788960        0.7321108918
 H         -6.1838686346       -2.1131508829       -1.4739870684
 H         -4.9707770666       -1.4201632613       -3.5091876085
 H         -2.6144125795       -0.6864353489       -3.3608282928
 H         -1.4732694571       -0.6449157628       -1.1630698399
 H         -2.5329158488        0.3808395363        2.9425095593
 H         -4.2556233135        1.4516443865        0.0993396929
 H         -3.3619316051        3.0619680137       -1.5621593288
 H         -0.9813581615        3.6615406523       -1.5439473797
 C          0.9737009320        2.7017714544        0.1936673667
 H          1.2276843601        3.2835960051        1.0918100375
 C          1.4967497857        3.4248918021       -1.0291702719
 C          1.4813880895        4.9223093991       -1.0844742694
 C          2.7795980561        4.1913525999       -0.9239883738
 H          3.4657442614        4.1647346549       -1.7570368061
 H          3.2664267555        4.2117317530        0.0405353886
 H          1.2799094491        5.4019294663       -2.0302410604
 H          1.0897769335        5.4502522447       -0.2282082872
 H          1.3170609607        2.8738848158       -1.9449580001
 O          0.6067096996        0.4472872888       -1.5424579792
