  62
        -98.94357933
 C         -1.7364105234       -1.2322457281        0.2362719381
 C         -1.8733428899       -0.0825894532       -0.5788178298
 C         -3.2499673424        0.2677251729       -0.9587968285
 C         -4.2677608614       -0.5080329899       -0.5432917493
 C         -5.7190141552       -0.2337828131       -0.8101654785
 C         -6.3410162936        0.6050873128        0.3150920793
 C         -5.5237674087        1.8421932679        0.6877514390
 H         -6.0730723749        2.3710539049        1.4697804698
 H         -4.5730563045        1.5245225725        1.1222333353
 C         -5.2504121287        2.7983825271       -0.4816097904
 H         -5.9469013870        2.5956718172       -1.2960288771
 H         -5.4329898201        3.8215874694       -0.1464316290
 C         -3.8177417163        2.7532855603       -1.0163557001
 H         -3.1133259733        2.8619370527       -0.1876660170
 H         -3.6766592807        3.6099646162       -1.6807088549
 C         -3.4402036911        1.4939242744       -1.8064466353
 H         -2.4733743620        1.6790300460       -2.2831725977
 H         -4.1812610546        1.3131343840       -2.5875975236
 H         -6.4350539580       -0.0233474984        1.2038698046
 H         -7.3432507664        0.9081182681        0.0065299007
 H         -5.8166653781        0.2857004817       -1.7613394064
 H         -6.2441097055       -1.1884474289       -0.8719602637
 O         -4.0924240954       -1.6176198889        0.2200758834
 C         -2.8284959504       -1.9983942312        0.6410043242
 O         -2.8094573985       -3.0182870729        1.3603900469
 O         -0.9018123562        0.6148272151       -0.9681452663
 C         -0.3563472898       -1.6614237420        0.7008529565
 C          0.2961404764       -0.5322142754        1.4603883152
 C         -0.4122302826        0.0914866748        2.4847116937
 C          0.1425660116        1.1448025970        3.1846741937
 C          1.4127308234        1.6012918119        2.8778222506
 C          2.1311286097        0.9820629347        1.8620356747
 C          1.5750485685       -0.0866767633        1.1709764637
 H          2.1519724686       -0.5679020149        0.4011391674
 N          3.3943931201        1.4547381125        1.4993349789
 S          4.5123423605        0.5514181107        0.6639322583
 O          4.6492239356       -0.7775813885        1.2138624024
 O          5.7096118751        1.3645604518        0.6873645396
 C          3.8867307217        0.4613541280       -1.0011190101
 C          4.0771640836       -0.7038086249       -1.7174603126
 C          3.5993982012       -0.7802376743       -3.0156612992
 C          2.9439734976        0.3066245443       -3.5731749329
 C          2.7670407884        1.4716950566       -2.8432408358
 C          3.2440674809        1.5548604046       -1.5451756627
 H          3.1113752067        2.4429931593       -0.9502696954
 H          2.2505923344        2.3122339570       -3.2779092576
 H          2.5649372027        0.2434894721       -4.5811291987
 H          3.7345363875       -1.6863198042       -3.5848811139
 H          4.5817536241       -1.5285934086       -1.2389790108
 H          3.7940326933        2.1781443257        2.0757723685
 H          1.8414474533        2.4328981293        3.4157057778
 H         -0.4187885864        1.6193092962        3.9757717208
 H         -1.4083466092       -0.2597441188        2.7196559883
 H         -0.5121888340       -2.4993242463        1.3961818682
 C          0.4588633411       -2.1493372621       -0.4788841178
 C          1.5442084593       -3.1625416890       -0.2799792738
 C          0.2680378182       -3.5548218454       -0.9604547359
 H          0.2863742745       -3.7426205727       -2.0232832840
 H         -0.4335843614       -4.1734197258       -0.4195516061
 H          2.4405308849       -3.0807905830       -0.8757280183
 H          1.7186619355       -3.5193635792        0.7240113651
 H          0.6087211396       -1.3800597746       -1.2283323790
