  62
        -98.93874586
 C          1.9677551255        1.3118530205       -0.0327142183
 C          2.6055772589        0.6458609879        1.0372646460
 C          3.8276679451       -0.1177922477        0.7187371763
 C          4.2480220785       -0.1587006194       -0.5595808884
 C          5.4332050566       -0.8947597891       -1.1254649400
 C          5.1828873856       -2.4055741844       -1.2625762026
 C          4.4886629794       -3.0537609550       -0.0674403431
 H          3.5347491854       -2.5523342203        0.1076482972
 H          4.2639016992       -4.0896374119       -0.3354791333
 C          5.2999602743       -3.0715661850        1.2260095759
 H          4.7201202845       -3.6305501868        1.9651625093
 H          6.2315832524       -3.6158039264        1.0557277123
 C          5.6389660020       -1.7040968791        1.8226460792
 H          6.4534317895       -1.2317140260        1.2803163500
 H          6.0019911059       -1.8750642782        2.8403945708
 C          4.4567871358       -0.7468686999        1.9388696071
 H          4.7501493456        0.0903653887        2.5839205285
 H          3.6418327576       -1.2488400158        2.4730808726
 H          6.1391033951       -2.8995309141       -1.4428014567
 H          4.5503733569       -2.5643832605       -2.1394783414
 H          5.6125448652       -0.4814791402       -2.1204236158
 H          6.3152227593       -0.7003509199       -0.5225109475
 O          3.5786019029        0.4706594278       -1.5670875247
 C          2.4341610052        1.2142343929       -1.3432127035
 O          1.9418466554        1.7243602142       -2.3665653999
 O          2.1696917749        0.6766564431        2.2213951082
 C          0.7176631965        2.1267183733        0.2484833447
 C         -0.4612900840        1.5037719459       -0.4575786902
 C         -1.2865916346        2.1900533209       -1.3373508026
 C         -2.3369931538        1.5399565216       -1.9636720246
 C         -2.5953627144        0.2047876265       -1.7175654771
 C         -1.7898990314       -0.4852870530       -0.8190016207
 C         -0.7374332558        0.1663594111       -0.1959142138
 H         -0.1064855920       -0.3728674912        0.4998608253
 N         -2.0594504176       -1.8351569992       -0.5404849982
 S         -3.6539251386       -2.2922348567       -0.3215057934
 O         -3.6006077981       -3.4381744525        0.5593317979
 O         -4.2754731124       -2.5154841314       -1.6032483405
 C         -4.4375912648       -0.9109121004        0.4930745382
 C         -5.5213331893       -0.2916969334       -0.0954921507
 C         -6.0996670339        0.7953690334        0.5401840377
 C         -5.5837753857        1.2445738665        1.7455994490
 C         -4.4968868252        0.6091124503        2.3266748402
 C         -3.9165702161       -0.4798615504        1.6970866777
 H         -3.0726138240       -0.9959732466        2.1265195647
 H         -4.0963492925        0.9593279262        3.2645322340
 H         -6.0302665401        2.0945153551        2.2369597901
 H         -6.9461005843        1.2898430026        0.0916565424
 H         -5.8867992206       -0.6711065337       -1.0358658399
 H         -1.4565719988       -2.2417146748        0.1589665872
 H         -3.3972834952       -0.3178907700       -2.2131514311
 H         -2.9618838792        2.0813025572       -2.6572286513
 H         -1.1007184676        3.2304322910       -1.5451034776
 H          0.5510432740        2.0351565323        1.3319213289
 C          0.9377073503        3.5852932866       -0.0887670911
 C          0.1322926055        4.6431724099        0.6026790547
 C          1.5847839918        4.4740746989        0.9293896304
 H          2.2832976148        5.2236524152        0.5888493922
 H          1.8499012539        4.0317293043        1.8787194837
 H         -0.1670884456        5.5141309963        0.0398322904
 H         -0.5920463457        4.3195790227        1.3344563547
 H          1.2066521853        3.7391254514       -1.1274115207
