  62
        -98.94069148
 C         -2.5338470468       -0.1892663051        0.1315501400
 C         -2.5335915092        0.9408800756        0.9857182543
 C         -2.2455435255        2.2355320899        0.3580861339
 C         -1.9831073745        2.2809370440       -0.9603524631
 C         -1.6494998230        3.5278412254       -1.7267615697
 C         -0.1348256211        3.7621442105       -1.7937270780
 C          0.5726757097        3.6686730103       -0.4415033316
 H          0.5455218690        2.6316032863       -0.0970390241
 H          1.6244455820        3.9114637958       -0.6118145492
 C          0.0070146628        4.5929156630        0.6454785839
 H          0.8423350524        5.0564767770        1.1747212580
 H         -0.5726287702        5.3947292891        0.1858490283
 C         -0.8486862021        3.8888714507        1.7004997014
 H         -0.9812984731        4.5725871992        2.5436756357
 H         -0.3157514299        3.0088622506        2.0728117690
 C         -2.2455812783        3.4499015182        1.2428412843
 H         -2.8165178067        3.1717859301        2.1337751370
 H         -2.7529807624        4.2850361205        0.7551403744
 H          0.0411247159        4.7464949168       -2.2326352715
 H          0.3034972644        3.0077476857       -2.4508748701
 H         -2.1386672516        4.3775000675       -1.2536247291
 H         -2.0342543656        3.4170156492       -2.7423062929
 O         -1.9716330205        1.1766247891       -1.7467717336
 C         -2.1964634722       -0.0873782491       -1.2197653757
 O         -2.0854484420       -1.0057658227       -2.0534443931
 O         -2.7648921584        0.8680160865        2.2249087762
 C         -2.7428203663       -1.5515146184        0.7702945534
 C         -1.5945305963       -2.4580373046        0.4003183764
 C         -1.7339335403       -3.7679677255       -0.0341428803
 C         -0.6138100449       -4.5218222548       -0.3470427886
 C          0.6558175678       -3.9843487287       -0.2599361022
 C          0.8044716230       -2.6662758708        0.1639346793
 C         -0.3119344393       -1.9351482262        0.5232208577
 H         -0.1862515363       -0.9230835427        0.8823525135
 N          2.0755264428       -2.0631053214        0.1846378468
 S          2.2619865821       -0.4289471046        0.4945199423
 O          2.0485482220       -0.1309536724        1.8971889045
 O          1.4698710080        0.3139264081       -0.4510314869
 C          3.9930923595       -0.2548418024        0.1069609102
 C          4.9268449064       -0.2265876102        1.1248952451
 C          6.2707238673       -0.1241731549        0.8002328367
 C          6.6559434200       -0.0547090891       -0.5299045940
 C          5.7069500547       -0.0813786079       -1.5413611606
 C          4.3622120693       -0.1824845692       -1.2228368277
 H          3.5873837133       -0.1982219576       -1.9720478522
 H          6.0090700882       -0.0235398136       -2.5746406300
 H          7.7019545861        0.0240042913       -0.7805827773
 H          7.0101235230       -0.0989123975        1.5843649339
 H          4.5794375329       -0.2748387902        2.1443832357
 H          2.8228447060       -2.6387323936        0.5414614602
 H          1.5242880773       -4.5654398682       -0.5269946130
 H         -0.7359387332       -5.5416408783       -0.6793718833
 H         -2.7164843881       -4.1969134994       -0.1434490793
 H         -2.6676499495       -1.3500844129        1.8537250433
 C         -4.1141937770       -2.1697253575        0.5443435249
 C         -5.2854073246       -1.3310715957        0.1301210717
 C         -4.7076190578       -2.3327115766       -0.8218351737
 H         -5.2767188359       -3.2274619230       -1.0281907891
 H         -4.1302202898       -1.9741546388       -1.6588252970
 H         -6.2465080879       -1.5355211223        0.5778507793
 H         -5.1055042441       -0.2828451494       -0.0619663512
 H         -4.3251852613       -2.9579078541        1.2608704289
