  62
        -98.93852419
 C         -1.5357032171       -0.6192595967       -0.9719776275
 C         -1.6141202082       -1.4336424989        0.1839675672
 C         -0.7317483314       -2.6113921077        0.1951987000
 C          0.0964841099       -2.8293941758       -0.8411287667
 C          1.0393528953       -3.9918944017       -0.9629855520
 C          2.4317830520       -3.6719935227       -0.4044013282
 C          2.4164124966       -3.0546019612        0.9940515391
 H          3.4563973460       -2.9271125141        1.3053896493
 H          1.9760880346       -2.0555969169        0.9551709723
 C          1.6658572698       -3.8791794308        2.0485592612
 H          1.5586584833       -4.9116454857        1.7120104617
 H          2.2613195532       -3.8948561343        2.9639588338
 C          0.2928732753       -3.3149570669        2.4207463838
 H          0.3851412741       -2.2421599008        2.6123911643
 H         -0.0321757107       -3.7911183271        3.3501731197
 C         -0.8185302993       -3.5253925720        1.3840912710
 H         -1.7725427222       -3.2951997719        1.8676472561
 H         -0.8360544026       -4.5716612865        1.0693232533
 H          2.9296961675       -2.9739999251       -1.0818828742
 H          3.0130628310       -4.5963390495       -0.3861669005
 H          0.6160636152       -4.8450457869       -0.4358938075
 H          1.1335239878       -4.2423423723       -2.0215449403
 O          0.1781220114       -1.9961411811       -1.9112111080
 C         -0.6266682492       -0.8707227467       -1.9976617660
 O         -0.4429327874       -0.1855464966       -3.0247089773
 O         -2.3898021876       -1.2079489260        1.1469025184
 C         -2.4097440371        0.6243243930       -1.1080557358
 C         -2.2022088152        1.4609502053        0.1323769233
 C         -3.1441112872        1.9010883256        1.0520533690
 C         -2.7545102323        2.6298619278        2.1651158592
 C         -1.4256455495        2.9164249894        2.4086063322
 C         -0.4708805135        2.4832527880        1.4960091102
 C         -0.8699265829        1.7997067807        0.3630394228
 H         -0.1195951236        1.4754463445       -0.3445825210
 N          0.8997893857        2.7245627261        1.6886719232
 S          1.9668202645        1.4825479829        1.3229480769
 O          1.3738735623        0.1850588875        1.5408786383
 O          3.1479338206        1.7787309166        2.1089010053
 C          2.3575535979        1.7186075157       -0.3965704083
 C          2.4248102109        0.6223333352       -1.2320030089
 C          2.7491313786        0.8106754715       -2.5655930171
 C          3.0051557003        2.0887189221       -3.0363615706
 C          2.9435019312        3.1800177781       -2.1826065884
 C          2.6187775812        2.9971297271       -0.8483512456
 H          2.5564894074        3.8198454044       -0.1558377024
 H          3.1430716350        4.1720173111       -2.5548512353
 H          3.2504785706        2.2325601471       -4.0767353614
 H          2.7811833206       -0.0382476631       -3.2295289770
 H          2.2007926628       -0.3544996178       -0.8320049928
 H          1.1327773576        3.1684073739        2.5655819370
 H         -1.1262941871        3.4556584326        3.2944796137
 H         -3.5049418892        2.9584718425        2.8684521260
 H         -4.1866308442        1.6662662619        0.9404457264
 H         -1.9664844441        1.1937115509       -1.9426696189
 C         -3.7896018836        0.2019318229       -1.5874893425
 C         -4.9095994526       -0.2664377212       -0.7128130817
 C         -5.0409566617        1.0200648521       -1.4747194290
 H         -5.7054205869        1.0325401964       -2.3262732186
 H         -5.0017383936        1.9576641920       -0.9456371372
 H         -5.4831968652       -1.1186279777       -1.0486927504
 H         -4.7549243335       -0.2542680959        0.3535416275
 H         -3.6740287219       -0.3420515841       -2.5233045396
