  62
        -98.93920497
 C         -2.6805604758       -1.2324910589       -0.3625975592
 C         -2.4967364733       -0.0070877304       -1.0485820748
 C         -3.6388302705        0.9160916382       -1.0183542719
 C         -4.7731324632        0.5632278520       -0.3879412041
 C         -6.0247998427        1.3916592766       -0.2848936889
 C         -5.9992472023        2.4165527659        0.8574826647
 C         -5.0817870927        3.6193283458        0.6329401684
 H         -5.3069327664        4.0713200331       -0.3335157459
 H         -5.3256814238        4.3553762457        1.4015896696
 C         -3.5827837383        3.2981074342        0.7167110635
 H         -3.0824154958        4.0507094293        1.3303355109
 H         -3.4419122267        2.3364942367        1.2163680803
 C         -2.8646061154        3.2636823275       -0.6324804844
 H         -2.8768723195        4.2601658409       -1.0795564241
 H         -1.8224174192        2.9842362244       -0.4570185096
 C         -3.4592309079        2.2690412765       -1.6378944192
 H         -4.4080509286        2.6425656464       -2.0218928304
 H         -2.7595054101        2.1635045667       -2.4703790720
 H         -5.7100676674        1.9052610073        1.7787044066
 H         -7.0195673910        2.7844688303        0.9879888388
 H         -6.2058553066        1.9030155967       -1.2306192966
 H         -6.8452821155        0.6941996313       -0.1032393427
 O         -4.9192851993       -0.6362494428        0.2360042794
 C         -3.8742254230       -1.5422403114        0.2930856376
 O         -4.1301863996       -2.5784457485        0.9395467219
 H          0.7830915021       -0.9841462328       -0.9636266794
 C          0.6443150536       -1.0341679771        0.1046769929
 C         -0.4802894223       -1.6562569875        0.6226637907
 C         -0.6475446513       -1.6895678908        2.0044776677
 C          0.2871241269       -1.1112732430        2.8423111964
 C          1.4011406296       -0.4759425615        2.3213405704
 C          1.5739045925       -0.4317024303        0.9446728918
 N          2.6797291747        0.2472008456        0.3990163113
 S          4.1975982495       -0.0419826267        1.0769046244
 O          4.4427895159       -1.4650545939        1.1670491739
 O          4.2955963793        0.6900665554        2.3148698262
 C          5.2564597390        0.6991197130       -0.1488485616
 C          5.8733924688       -0.1018261906       -1.0906389554
 C          6.6741772654        0.4919533490       -2.0536864827
 C          6.8400772812        1.8686698094       -2.0603220313
 C          6.2131971188        2.6594147263       -1.1085615932
 C          5.4121836429        2.0722290683       -0.1423693785
 H          4.9115580305        2.6450275008        0.6206352639
 H          6.3461068378        3.7292204778       -1.1164157583
 H          7.4638344481        2.3281387806       -2.8107693713
 H          7.1646778322       -0.1199280009       -2.7935351229
 H          5.7225223525       -1.1684056150       -1.0425658437
 H          2.7134123647        0.1558620335       -0.6074657882
 H          2.1368986970       -0.0191772370        2.9632650076
 H          0.1472932394       -1.1501393223        3.9124976434
 H         -1.5273018042       -2.1696378831        2.4115307710
 C         -1.5552608767       -2.2498904238       -0.2559682687
 H         -1.9801759050       -3.1159801837        0.2688334600
 C         -1.0638149505       -2.6983982546       -1.6160291075
 C         -0.2033982494       -3.9210108225       -1.7164518553
 C         -1.6163601368       -3.9553023651       -2.2145636294
 H         -1.7873281483       -3.9858811400       -3.2801984103
 H         -2.3489048302       -4.5029894975       -1.6396942988
 H          0.5972395971       -3.9324209815       -2.4401979690
 H          0.0255308345       -4.4448385366       -0.8004265928
 H         -0.8625326501       -1.8776161710       -2.2925847994
 O         -1.4453861464        0.3096491733       -1.6629917896
