  62
        -98.93434081
 C         -2.4119620643       -1.1436733586        0.0707719642
 C         -2.4270881206        0.2688554216        0.0697029922
 C         -3.7338741227        0.9194525392        0.3002521898
 C         -4.8168855651        0.1460666381        0.5036517007
 C         -6.2438178611        0.5762934527        0.7185061228
 C         -6.9280009052        1.0305944138       -0.5808275506
 C         -6.0822166378        1.9398603521       -1.4682919324
 H         -5.1541670901        1.4266360338       -1.7270688083
 H         -6.6329968844        2.1015570265       -2.3986942989
 C         -5.7565661463        3.3084684292       -0.8749407447
 H         -6.6881416825        3.8323619117       -0.6497191296
 H         -5.2324062911        3.8793079486       -1.6457680562
 C         -4.8859278351        3.3024389015        0.3834778116
 H         -5.4671808975        3.0372470232        1.2624288390
 H         -4.5346630493        4.3264142796        0.5410397209
 C         -3.6402085586        2.4262666213        0.2928337466
 H         -3.0806959405        2.6887017390       -0.6126355600
 H         -2.9712472015        2.6815392398        1.1239972163
 H         -7.1769547517        0.1386530865       -1.1607844118
 H         -7.8598150428        1.5356994818       -0.3212518017
 H         -6.7776366601       -0.2942333407        1.1058315821
 H         -6.2890688338        1.3556504672        1.4732204675
 O         -4.7503346487       -1.2167519717        0.5007273627
 C         -3.5665578917       -1.8935037435        0.2884244917
 O         -3.6648987762       -3.1370512650        0.3239783708
 H          1.5158904224       -1.1437385648       -0.5970663207
 C          1.2247524659       -1.1136637138        0.4388163867
 C         -0.0634769733       -1.4528853972        0.8209372951
 C         -0.3921855864       -1.4088933546        2.1736825334
 C          0.5376816071       -1.0089544601        3.1129233207
 C          1.8150104758       -0.6450853258        2.7242445887
 C          2.1601299496       -0.7035954353        1.3795082098
 N          3.4705941683       -0.3928602697        0.9726418514
 S          3.7407030767        0.4069868728       -0.4893833981
 O          3.0050653072        1.6507224379       -0.5346596173
 O          3.5193634017       -0.5113641796       -1.5772461630
 C          5.4879202993        0.7317481158       -0.3317337811
 C          5.9197868413        1.9950503767        0.0244862492
 C          7.2796476259        2.2239753299        0.1660503235
 C          8.1792081742        1.1905529779       -0.0472746586
 C          7.7307209807       -0.0723397862       -0.4053349125
 C          6.3728593493       -0.3073615446       -0.5499710995
 H          5.9785314093       -1.2686693850       -0.8349304575
 H          8.4335811347       -0.8724151490       -0.5728582681
 H          9.2367064723        1.3712527024        0.0634874391
 H          7.6313030584        3.2054209221        0.4407109929
 H          5.1839244416        2.7692819088        0.1722330365
 H          4.0029031502        0.0482867197        1.7112508276
 H          2.5387746348       -0.3220357123        3.4572669860
 H          0.2646866389       -0.9717065227        4.1570239777
 H         -1.3943626922       -1.6834805118        2.4756824431
 C         -1.1136044307       -1.8906283925       -0.1709788858
 H         -1.3359912412       -2.9527007773        0.0124433455
 C         -0.6817859097       -1.7282778073       -1.6135858840
 C          0.1099112923       -2.8050053276       -2.2905574650
 C         -1.3227077988       -2.5787178661       -2.6671758980
 H         -1.5422962562       -2.1336071405       -3.6260648451
 H         -2.0585244262       -3.2990257374       -2.3396349502
 H          0.3479237700       -3.6856848303       -1.7132182346
 H          0.8824318579       -2.5130712504       -2.9863300523
 H         -0.4610630705       -0.6969573814       -1.8689483780
 O         -1.3968877479        0.9703563945       -0.1174690097
