  62
        -98.93943142
 C         -2.4429031110       -1.2263610693       -0.0098481369
 C         -3.1498216974       -0.4431626689        0.9301811402
 C         -3.7839129825        0.7837647758        0.4186113311
 C         -3.6441363644        1.0959426597       -0.8816676444
 C         -4.1455684686        2.3286559530       -1.5813451071
 C         -3.0514772502        3.4094875395       -1.6190407653
 C         -3.0017600393        4.3199964623       -0.3923382612
 H         -3.8655909139        4.9879517719       -0.4056985789
 H         -2.1058298025        4.9386031615       -0.4847814576
 C         -2.9621555379        3.5999254604        0.9583623843
 H         -2.5590819489        4.2968364717        1.6961142094
 H         -2.2699102536        2.7568304754        0.9029271739
 C         -4.3438205887        3.1206007590        1.4291797302
 H         -5.1096978673        3.5954897351        0.8163863161
 H         -4.5118300555        3.4591544989        2.4534990790
 C         -4.5509060173        1.5976303587        1.4249046450
 H         -5.6180193619        1.3833188995        1.3071984829
 H         -4.2541058947        1.1875031330        2.3953511107
 H         -3.2077771825        4.0370073110       -2.4988430529
 H         -2.0869471658        2.9086411178       -1.7443529125
 H         -5.0497688839        2.7005158860       -1.1086472001
 H         -4.3773251835        2.0335897803       -2.6067106951
 O         -2.9446504097        0.3187522668       -1.7530610528
 C         -2.3152491257       -0.8455539771       -1.3458579878
 O         -1.6957111906       -1.4383138654       -2.2482686089
 O         -3.2341592884       -0.7466583689        2.1522958659
 C         -1.7304169003       -2.4813644346        0.4645045097
 C         -0.2435705308       -2.2896710289        0.2904082343
 C          0.5764643491       -3.1668880945       -0.4051300928
 C          1.9240824374       -2.8890642263       -0.5620137351
 C          2.4819147890       -1.7424627274       -0.0276539989
 C          1.6719321926       -0.8631076143        0.6797168017
 C          0.3258087759       -1.1456488512        0.8381173801
 H         -0.3058714601       -0.4550150712        1.3846250757
 N          2.2322257374        0.3091786522        1.2298882367
 S          2.9103742781        1.3867717633        0.1278859384
 O          2.8635274809        2.6772186662        0.7814937338
 O          2.2679120788        1.2979418729       -1.1639243022
 C          4.6044911163        0.8531515191        0.0141320042
 C          5.1284087699        0.4766584326       -1.2067981665
 C          6.4503145795        0.0631516759       -1.2687902324
 C          7.2193054422        0.0339691673       -0.1153932025
 C          6.6780600293        0.4176466683        1.1028161565
 C          5.3580641942        0.8334116036        1.1716761173
 H          4.8987701621        1.1434570300        2.0953341161
 H          7.2792929885        0.3933941182        1.9972926315
 H          8.2466907886       -0.2902540966       -0.1664637676
 H          6.8725606523       -0.2352255404       -2.2148935743
 H          4.4889025027        0.5087250983       -2.0746133901
 H          1.5889606016        0.8066256788        1.8303992915
 H          3.5289410447       -1.5207113069       -0.1549957101
 H          2.5483304258       -3.5753341914       -1.1134920253
 H          0.1586367903       -4.0606087756       -0.8380455034
 H         -1.9435963183       -2.5489575240        1.5415807743
 C         -2.2781538226       -3.7138639587       -0.2206108593
 C         -2.1707126993       -5.0516657875        0.4464611415
 C         -3.5015676937       -4.3714978001        0.3414608140
 H         -4.2338320387       -4.7687789030       -0.3451780521
 H         -3.9303338990       -3.9412834903        1.2348444402
 H         -1.9909990561       -5.9209401351       -0.1676097072
 H         -1.6963210756       -5.0892830032        1.4152882886
 H         -2.1866339235       -3.6674255472       -1.2996582251
