  62
        -98.93704743
 C         -0.8419558708       -1.5983206879       -0.7722257489
 C         -2.0110073342       -1.9316417939       -0.0457128594
 C         -3.1401197168       -0.9839068848       -0.0965279552
 C         -2.9974066703        0.1473699838       -0.8115233310
 C         -3.9832340272        1.2726230699       -0.9843557584
 C         -4.0959393998        2.1740468071        0.2556584524
 C         -4.1380671494        1.4356179065        1.5905038257
 H         -3.2487174424        0.8094993243        1.6822457372
 H         -4.0930247866        2.1834919868        2.3865200188
 C         -5.3849316023        0.5858506642        1.8223689954
 H         -5.3243519935        0.1873383815        2.8384286492
 H         -6.2698407909        1.2241560979        1.7690496926
 C         -5.5753769870       -0.5899847487        0.8627432736
 H         -5.9414328658       -0.2534185840       -0.1034565759
 H         -6.3550797623       -1.2318017776        1.2835232794
 C         -4.3398389969       -1.4663168549        0.6829865581
 H         -4.6439219505       -2.4035747201        0.2009077996
 H         -3.9622716622       -1.7618232750        1.6685445224
 H         -4.9893098910        2.7921811324        0.1515175057
 H         -3.2258734528        2.8321594481        0.2714030449
 H         -3.6230865263        1.8746760252       -1.8211872186
 H         -4.9544033670        0.8717813833       -1.2610396975
 O         -1.8532729276        0.4314512189       -1.4939325900
 C         -0.7579960711       -0.4185546228       -1.5125755968
 O          0.1812044786       -0.0058413683       -2.2154954406
 O         -2.1162344317       -2.9957719752        0.6240370300
 C          0.3110639554       -2.5818077219       -0.6889220507
 C          1.2319611515       -2.2293987561        0.4513687208
 C          1.6358445231       -3.1957853027        1.3656106087
 C          2.4793124953       -2.8652192349        2.4112721867
 C          2.9452440013       -1.5710173165        2.5556136406
 C          2.5436398869       -0.5958890657        1.6492745240
 C          1.6838139713       -0.9272174982        0.6123712405
 H          1.3758093130       -0.1654555842       -0.0864709160
 N          2.9738199163        0.7313694272        1.7793987742
 S          3.3043157937        1.6338932816        0.4066839448
 O          3.8702456904        0.8126638242       -0.6372470416
 O          4.1537616752        2.7055853380        0.8879636114
 C          1.7469484428        2.3381911992       -0.0820659613
 C          1.4898771480        2.5336895172       -1.4230863839
 C          0.3087173734        3.1562157041       -1.7937478131
 C         -0.5880770336        3.5688487639       -0.8226107104
 C         -0.3159015388        3.3616600617        0.5214829254
 C          0.8643992651        2.7439795978        0.8994501955
 H          1.1075783485        2.5653717369        1.9339884135
 H         -1.0178298182        3.6790502125        1.2767516821
 H         -1.5061668034        4.0530802140       -1.1180420359
 H          0.0902537727        3.3019619801       -2.8392520965
 H          2.2013695328        2.1775674077       -2.1503853441
 H          3.6482959236        0.8970052695        2.5122345165
 H          3.6102444054       -1.3122993225        3.3654841047
 H          2.7831987482       -3.6233456230        3.1169669206
 H          1.2727228358       -4.2074539204        1.2592501873
 H         -0.1587259045       -3.5480024849       -0.4429670301
 C          1.0527176093       -2.7679396997       -2.0042774065
 C          2.3804689122       -2.1509263237       -2.3122493127
 C          2.2833349123       -3.6246433849       -2.0625306051
 H          2.4056215342       -4.3005264125       -2.8954697102
 H          2.6749281113       -3.9978951242       -1.1281139811
 H          2.5424139475       -1.8044537678       -3.3219963536
 H          2.8523528095       -1.5224464500       -1.5723799882
 H          0.3640354060       -2.8507156132       -2.8399077629
