  62
        -98.94274401
 C         -1.8142715969       -0.9798612664       -0.2615486852
 C         -3.1891353420       -1.3185681223       -0.1768285955
 C         -4.1396568275       -0.2513101099       -0.5074487963
 C         -3.6814382895        0.9642835926       -0.8565439325
 C         -4.5221923244        2.1496221121       -1.2464336954
 C         -5.0493003955        2.9608969422       -0.0548151754
 C         -6.1660377347        2.2902060994        0.7461723909
 H         -6.5873924514        3.0505395481        1.4068108113
 H         -6.9589657455        1.9736002356        0.0678169609
 C         -5.7069768750        1.0976290454        1.5968596962
 H         -4.6207903946        1.1278186485        1.7099427352
 H         -6.1348946237        1.1783514556        2.5986603736
 C         -6.1086541949       -0.2691212516        1.0421600639
 H         -7.1969249433       -0.3622204334        1.0485217717
 H         -5.7013534931       -1.0404122505        1.7009722898
 C         -5.6035483968       -0.5469077724       -0.3797256300
 H         -5.7488193195       -1.6087826725       -0.5935443839
 H         -6.1740360401        0.0363498152       -1.1024298376
 H         -4.2126216438        3.1909802267        0.6087916293
 H         -5.4313618947        3.9057457198       -0.4481241193
 H         -3.8836951678        2.7989225147       -1.8493229632
 H         -5.3595672975        1.8181654753       -1.8612293433
 O         -2.3558548893        1.2558811536       -0.9096194481
 C         -1.3902850345        0.3064807550       -0.5953199020
 O         -0.2255579834        0.7403441602       -0.6532424702
 H          1.9466297923       -1.9041490868       -0.2682539303
 C          1.6090556438       -1.5312523831        0.6835134772
 C          0.2607325319       -1.5204607912        1.0028648930
 C         -0.1281126510       -1.0086413076        2.2390389287
 C          0.8071340319       -0.5100365071        3.1237153352
 C          2.1524533225       -0.5154342046        2.7977057341
 C          2.5535431162       -1.0299179484        1.5710640858
 N          3.9184846899       -1.0952307531        1.2445951264
 S          4.5367335972       -0.6116367152       -0.2305604138
 O          3.8806251724       -1.3166427622       -1.3005510627
 O          5.9623490796       -0.8269391729       -0.1063129307
 C          4.2209755952        1.1415964306       -0.3303882256
 C          5.2793968781        2.0121337029       -0.1505413857
 C          5.0433830779        3.3762902294       -0.1898260189
 C          3.7553332487        3.8463762002       -0.3990868964
 C          2.7046078664        2.9590378220       -0.5710483415
 C          2.9326748032        1.5914979494       -0.5383721484
 H          2.1181006343        0.8967255760       -0.6673014175
 H          1.6969728423        3.3095954809       -0.7290575385
 H          3.5684144829        4.9084566257       -0.4282080257
 H          5.8604938856        4.0669401862       -0.0562000310
 H          6.2632518156        1.6008181043        0.0078230154
 H          4.5319021016       -0.7828121137        1.9837861364
 H          2.8858042027       -0.1286964225        3.4890835320
 H          0.4888694258       -0.1122024197        4.0756391923
 H         -1.1796690245       -1.0033823163        2.4934032705
 C         -0.8020169346       -2.0582327940        0.0772396398
 H         -1.3829684407       -2.8122386579        0.6357538070
 C         -0.2272275704       -2.7706904269       -1.1378797277
 C         -1.0013738023       -2.8882079476       -2.4156781712
 C          0.2261180655       -2.0315578383       -2.3595618568
 H          1.1236906714       -2.3677362757       -2.8585319322
 H          0.1062793167       -0.9595764412       -2.3683510298
 H         -0.9565883467       -3.8209689316       -2.9575327078
 H         -1.9630154754       -2.3983061822       -2.4676271613
 H          0.3596089990       -3.6402712786       -0.8560993643
 O         -3.6013188148       -2.4595047126        0.1623936165
