  62
        -98.94090209
 C          2.3889722031        1.2540884297        0.1279505641
 C          2.2851438869       -0.1575908674        0.0434022736
 C          3.4141550517       -0.9136671451        0.6080591794
 C          4.4323187652       -0.2680579016        1.2024285262
 C          5.6422258690       -0.9026595884        1.8324577645
 C          6.7598271224       -1.2377490484        0.8351831918
 C          6.4761087180       -2.4253385957       -0.0855568406
 H          7.4173860707       -2.6828951763       -0.5751290977
 H          6.1751878626       -3.2850085687        0.5140590163
 C          5.4183902157       -2.1531059703       -1.1642951088
 H          5.2771968726       -1.0751947329       -1.2725068166
 H          5.7748823139       -2.5266611808       -2.1268697797
 C          4.0612660639       -2.8060476909       -0.9004622775
 H          4.1670817360       -3.8930436991       -0.9199967240
 H          3.3801036268       -2.5217883938       -1.7070333136
 C          3.4136903599       -2.4022314725        0.4308689606
 H          3.9286178750       -2.8851130571        1.2611878280
 H          2.3727358512       -2.7361913114        0.4232599798
 H          7.6575137911       -1.4624538691        1.4156328444
 H          6.9675870037       -0.3507365911        0.2322119863
 H          6.0302163838       -0.1815433858        2.5550929421
 H          5.3463190717       -1.8056245519        2.3671997643
 O          4.4657469803        1.0859301112        1.3173015976
 C          3.4622403712        1.8727258168        0.7778810909
 O          3.6327973153        3.0965737572        0.9468016286
 O          1.3202396768       -0.7753383510       -0.4769572059
 C          1.3232655844        2.1879220620       -0.4235596212
 C         -0.0389929173        1.7484027163        0.0500601017
 C         -0.4303067070        2.0361686748        1.3540256497
 C         -1.6581095224        1.6163977431        1.8299152174
 C         -2.5163009363        0.8936505148        1.0194188204
 C         -2.1245087043        0.5817446617       -0.2751418263
 C         -0.9001200846        1.0256105699       -0.7586625323
 H         -0.5984228524        0.7660564790       -1.7614116880
 N         -2.9809465975       -0.1553751183       -1.1074082365
 S         -3.8586140194       -1.4369071548       -0.4786196331
 O         -3.1869130938       -2.0764752524        0.6284015292
 O         -4.1612953707       -2.2748906906       -1.6188880957
 C         -5.3652595797       -0.6678610450        0.0833113391
 C         -6.0544631653        0.1397125270       -0.8001704049
 C         -7.2316968887        0.7386507916       -0.3814976498
 C         -7.7001755869        0.5187435380        0.9052682221
 C         -6.9997955230       -0.2984556029        1.7790172816
 C         -5.8207169911       -0.8996127172        1.3663018270
 H         -5.2403349322       -1.5383626460        2.0133803930
 H         -7.3655153261       -0.4694213176        2.7788138672
 H         -8.6164192671        0.9866954177        1.2290995837
 H         -7.7792665726        1.3745874530       -1.0583279707
 H         -5.6591497693        0.2829746839       -1.7917892990
 H         -2.5685591781       -0.4016848441       -1.9955269295
 H         -3.4686069096        0.5508667000        1.3893264078
 H         -1.9505769353        1.8500472136        2.8424599850
 H          0.2470121264        2.5861549001        1.9933176897
 H          1.5405891049        3.1650793229        0.0362121288
 C          1.3887028079        2.3954733462       -1.9299941146
 C          2.7134227019        2.5444066125       -2.6155082532
 C          1.8606596686        1.3431266096       -2.8857222350
 H          1.3701460371        1.2702941783       -3.8458798506
 H          2.1669611280        0.3910598592       -2.4822442304
 H          2.8148856169        3.2912708108       -3.3882711415
 H          3.6001207212        2.4170027228       -2.0112060194
 H          0.5899567452        3.0431769923       -2.2787855428
