  62
        -98.93495081
 C         -2.2868616872       -1.0111608181       -0.0273506832
 C         -3.3465243956       -0.6884912039        0.8538423105
 C         -4.3565244607        0.2664389872        0.3631241943
 C         -4.2013619376        0.8057782331       -0.8593406751
 C         -5.0852943026        1.7958338452       -1.5747310796
 C         -5.6052220998        2.9797406379       -0.7446842902
 C         -7.1054777103        2.9072170965       -0.4552249344
 H         -7.4741778072        3.9178594902       -0.2661082157
 H         -7.6142895164        2.5370230705       -1.3477082464
 C         -7.4940491620        2.0425820135        0.7428012046
 H         -7.1973570089        2.5480137576        1.6644072112
 H         -8.5836227541        1.9624328019        0.7529498192
 C         -6.8989509106        0.6330071424        0.7532306304
 H         -6.9193641795        0.2018359548       -0.2469792342
 H         -7.5354579661        0.0071776673        1.3824420397
 C         -5.4741015213        0.5703849966        1.3234136674
 H         -5.2419721197        1.5001326098        1.8509529349
 H         -5.4141684029       -0.2226369660        2.0753129429
 H         -5.0430091718        3.0559167400        0.1847138917
 H         -5.4157523546        3.8923610724       -1.3120616511
 H         -4.4816388813        2.1629160809       -2.4078371976
 H         -5.9261453622        1.2542968013       -2.0152197868
 O         -3.1554480104        0.4766778658       -1.6695542776
 C         -2.1801340326       -0.4294206939       -1.2895276570
 O         -1.3029805858       -0.6202226497       -2.1535137527
 O         -3.4507192935       -1.1843281647        2.0080542589
 C         -1.2305943649       -1.9918356020        0.4544546316
 C          0.0528988065       -1.2369495771        0.6979691734
 C          0.2266142352       -0.5645696503        1.9046315787
 C          1.3751619295        0.1647040424        2.1474684637
 C          2.3710651503        0.2473163059        1.1896708151
 C          2.2052033935       -0.4143170930       -0.0192122801
 C          1.0566155502       -1.1594296798       -0.2549417951
 H          0.9339001376       -1.6573475474       -1.2039642644
 N          3.1981638720       -0.3100677594       -1.0074801190
 S          4.7929288170       -0.6022179205       -0.5844241341
 O          5.4509729771       -0.9792900864       -1.8163714901
 O          4.8880631886       -1.5443302539        0.5069990435
 C          5.4000630687        0.9902380612       -0.0682805089
 C          6.0168096154        1.1268602362        1.1599362838
 C          6.4934933590        2.3731952086        1.5357041880
 C          6.3466914658        3.4545756845        0.6806471707
 C          5.7267190919        3.3002199349       -0.5505654031
 C          5.2490146226        2.0568303722       -0.9326352876
 H          4.7622274757        1.8952821581       -1.8801184982
 H          5.6133843479        4.1437226257       -1.2124756746
 H          6.7172177499        4.4237449929        0.9752302028
 H          6.9756322063        2.4952783147        2.4923182912
 H          6.1024485287        0.2592141332        1.7945477872
 H          2.9574422580       -0.7659591796       -1.8754419035
 H          3.2677419705        0.8174834056        1.3699728259
 H          1.4969552137        0.6771759555        3.0896178603
 H         -0.5574247835       -0.6169661550        2.6471222379
 H         -1.5962328367       -2.3561037802        1.4239967350
 C         -1.0743899234       -3.1735450991       -0.4795313767
 C         -0.3215574140       -4.3807909208       -0.0082664816
 C         -1.8084829886       -4.4450986502       -0.1823767289
 H         -2.2070704561       -5.0142350763       -1.0088184634
 H         -2.4259176696       -4.4709264756        0.7034432187
 H          0.3039158626       -4.9080158389       -0.7126214172
 H          0.0727426742       -4.3592501238        0.9966285907
 H         -0.9794861197       -2.8917508601       -1.5210583275
