  62
        -98.94874203
 C          2.0590496360        1.0032669124       -0.1826636104
 C          1.1914873968        1.7446513011       -1.0179342830
 C          0.2840797983        2.6731420570       -0.3381172933
 C          0.3125141547        2.7675681254        1.0039151238
 C         -0.5573460963        3.6636391515        1.8434042301
 C         -1.9427893040        3.0713775129        2.1379269289
 C         -2.9202889793        3.0916172176        0.9616782057
 H         -2.9481726353        4.0922850104        0.5283991651
 H         -3.9120616855        2.8814397925        1.3668093669
 C         -2.6080615284        2.0580825794       -0.1293934381
 H         -3.5292252618        1.5476852230       -0.4214158425
 H         -1.9409431980        1.2955661923        0.2803678036
 C         -1.9906793631        2.6378915577       -1.4018519102
 H         -2.7163467946        3.2871766586       -1.8967613966
 H         -1.7634488277        1.8084065060       -2.0759046258
 C         -0.6997030282        3.4345735056       -1.1756793909
 H         -0.9261962637        4.3949544280       -0.7131082528
 H         -0.2346194303        3.6143236299       -2.1483531292
 H         -2.3776492344        3.6475921829        2.9583619717
 H         -1.8133610361        2.0414726471        2.4818507951
 H         -0.6678139525        4.6339763401        1.3577311616
 H         -0.0338736234        3.8052930216        2.7914667285
 O          1.1752852751        2.0523548836        1.7722205395
 C          2.0320492984        1.1213281563        1.2074487363
 O          2.7242459922        0.4916053627        2.0317604130
 O          1.1717399960        1.6276494911       -2.2743729432
 C          2.9539554522       -0.0503410487       -0.8094044792
 C          2.5258022787       -1.4171322065       -0.3301929634
 C          3.4134526379       -2.4380496581       -0.0190337496
 C          2.9405232649       -3.6541513366        0.4453096949
 C          1.5868867956       -3.8702001238        0.6233878066
 C          0.6874539928       -2.8586458202        0.3002141382
 C          1.1640313875       -1.6601021727       -0.2004321721
 H          0.4700944929       -0.8682273359       -0.4375554379
 N         -0.6953935596       -3.0491722955        0.4540953841
 S         -1.7263757957       -1.8534153392        1.0247100771
 O         -1.0088464131       -0.6684836932        1.4268519376
 O         -2.5313600805       -2.4898503118        2.0480591911
 C         -2.7823171441       -1.4901794882       -0.3672794659
 C         -2.2353136635       -1.2579048416       -1.6132198594
 C         -3.0775219318       -0.9421835843       -2.6680647557
 C         -4.4463383650       -0.8633774871       -2.4636700037
 C         -4.9824961277       -1.1043067891       -1.2083028475
 C         -4.1448988770       -1.4194201586       -0.1501640479
 H         -4.5175775553       -1.6166669539        0.8416702499
 H         -6.0471744283       -1.0453248263       -1.0492838064
 H         -5.0958965840       -0.6137218543       -3.2875540189
 H         -2.6573389283       -0.7556912585       -3.6436572554
 H         -1.1680282508       -1.3204955635       -1.7524538795
 H         -0.9449029337       -3.9369074010        0.8653301975
 H          1.2244594461       -4.8094914097        1.0130889361
 H          3.6392884470       -4.4395626891        0.6908561565
 H          4.4740491503       -2.2787893470       -0.1258953971
 H          2.7635134228        0.0109560720       -1.8921416004
 C          4.4159513592        0.2476634330       -0.5548813422
 C          5.4568034729       -0.1518656732       -1.5568265262
 C          5.0955702550        1.2922113194       -1.3872633802
 H          5.8037304823        1.9517866313       -0.9087854176
 H          4.5086168083        1.7682834528       -2.1591560776
 H          6.4188999055       -0.4830516236       -1.1959674876
 H          5.1230904981       -0.6537505637       -2.4524160449
 H          4.6703837643        0.2027845074        0.4980831156
