  62
        -98.94407316
 C          1.4839152606        1.5228723493        0.3767646712
 C          1.7619521902        0.3520594191        1.1239241910
 C          2.9086163600       -0.4410813912        0.6677937611
 C          3.5972995103       -0.0539497312       -0.4212830287
 C          4.7994555203       -0.7483711614       -1.0020823686
 C          4.4563994801       -1.9203655811       -1.9320457288
 C          3.9352305696       -3.1762719711       -1.2324334692
 H          3.9442295296       -3.9801229410       -1.9710860193
 H          4.6243508294       -3.4584415414       -0.4358384691
 C          2.5150979296       -3.0425936108       -0.6648375394
 H          2.0168504499       -2.1852772906       -1.1236208894
 H          1.9321440094       -3.9274329006       -0.9280851597
 C          2.4507106193       -2.8953495811        0.8548758606
 H          1.4043608193       -2.7649001708        1.1380773804
 H          2.8229713990       -3.8062794913        1.3283153905
 C          3.2365951595       -1.7013949014        1.4097713710
 H          4.3075993295       -1.8986820717        1.3674464311
 H          2.9481498694       -1.5562502815        2.4537209809
 H          3.7218973504       -1.5798846108       -2.6655157689
 H          5.3684913302       -2.1834324413       -2.4728307887
 H          5.4455611300       -1.0982562017       -0.1964377785
 H          5.3415587106        0.0026907886       -1.5806863083
 O          3.2783161608        1.0605428490       -1.1308018485
 C          2.2176356409        1.8739959093       -0.7568253686
 O          2.0469388014        2.8576869195       -1.5008550885
 O          1.0912772199       -0.0066578209        2.1285817709
 C          0.3324051808        2.4091766495        0.8199854611
 C         -0.7521475090        2.3823153100       -0.2278572291
 C         -1.0367318786        3.4587524902       -1.0576887389
 C         -2.0236762484        3.3559354607       -2.0219902891
 C         -2.7620505387        2.1952365909       -2.1566781295
 C         -2.4918953692        1.1141330607       -1.3246549496
 C         -1.4822323893        1.2084480502       -0.3806666294
 H         -1.2671194297        0.3623702400        0.2575546605
 N         -3.2309861195       -0.0752805691       -1.4306447400
 S         -3.7818127599       -0.8239895892       -0.0345204902
 O         -5.0117464600       -1.4766788888       -0.4350442206
 O         -3.8867021299        0.1093132306        1.0615175299
 C         -2.5812914904       -2.0876827796        0.3182339398
 C         -2.0315544306       -2.1827499800        1.5803132599
 C         -1.1684681410       -3.2310287803        1.8575951198
 C         -0.8701126710       -4.1588801902        0.8714519297
 C         -1.4214937908       -4.0421779598       -0.3956487204
 C         -2.2895883104       -3.0002139895       -0.6767116703
 H         -2.7502762902       -2.8842842692       -1.6435936404
 H         -1.1819327108       -4.7626100497       -1.1611018404
 H         -0.2016653913       -4.9760707604        1.0928325497
 H         -0.7312255012       -3.3141964806        2.8399099499
 H         -2.2828325106       -1.4376527900        2.3185582899
 H         -3.9541232193       -0.0522028988       -2.1356993401
 H         -3.5426250986        2.1214961112       -2.8990680597
 H         -2.2283559481        4.1957881208       -2.6686982990
 H         -0.4751327383        4.3725558000       -0.9603408087
 H         -0.0677080495        1.9343817395        1.7273932310
 C          0.8143388511        3.8006278393        1.1719974315
 C         -0.0470301688        4.6894024394        2.0168299715
 C          1.2079208709        4.1005755290        2.5859039216
 H          2.0517449611        4.7517288987        2.7583315419
 H          1.1172668805        3.3032638088        3.3091111415
 H         -0.0665682585        5.7468609494        1.8014940017
 H         -0.9928798290        4.2910754696        2.3525255812
 H          1.4040578914        4.2580533793        0.3864019617
