  62
        -98.93318709
 C         -1.9695096575       -1.0077453060        0.4486044122
 C         -2.6940918114       -0.0399044538        1.1899275771
 C         -4.1198551112        0.1101873671        0.8673174800
 C         -4.6546891019       -0.6652533705       -0.0930785214
 C         -6.0684066449       -0.5854518615       -0.5951316421
 C         -6.2257826238        0.6257179174       -1.5364746547
 C         -7.1571005263        1.7172662073       -1.0088121339
 H         -7.0216353188        2.5970643929       -1.6415852422
 H         -8.1917369199        1.3865361069       -1.1217407672
 C         -6.9514236943        2.1195240377        0.4547089684
 H         -7.4259926198        1.3852971090        1.1074821480
 H         -7.4864008453        3.0598613520        0.6041007810
 C         -5.4953768018        2.3050098703        0.9013453047
 H         -4.8569121602        2.5361633141        0.0482339106
 H         -5.4529568407        3.1662792116        1.5713823327
 C         -4.9041345509        1.1096558609        1.6716704408
 H         -4.1943576269        1.4892676113        2.4127754163
 H         -5.7021286652        0.5955653092        2.2149224492
 H         -5.2354817502        1.0481648334       -1.7197495838
 H         -6.6067242957        0.2892968951       -2.5019238028
 H         -6.7537194657       -0.5085553046        0.2461054438
 H         -6.2754050878       -1.5121000703       -1.1308750455
 O         -3.9309579760       -1.5800871191       -0.7847816638
 C         -2.5744735430       -1.7757639476       -0.5470014138
 O         -2.0615444675       -2.6425540251       -1.2761275817
 O         -2.1661678423        0.6625305287        2.0949972303
 C         -0.4992918370       -1.1603268675        0.7948268780
 C          0.3508322133       -0.2578226542       -0.0615605597
 C          0.2489423192       -0.2742196568       -1.4491567483
 C          1.0478419243        0.5494804114       -2.2214466137
 C          1.9644371833        1.4012047576       -1.6293256531
 C          2.0746549087        1.4238211036       -0.2458493448
 C          1.2705029394        0.5969300410        0.5281188912
 H          1.3499856491        0.6304313345        1.6063253467
 N          3.0288214137        2.2699036992        0.3563375732
 S          4.6271272256        1.9713973653       -0.0606180891
 O          5.4196198597        2.6024014599        0.9694925069
 O          4.8568836722        2.4197506716       -1.4097243629
 C          4.7652700656        0.1964058416        0.0355563825
 C          4.9781276139       -0.3783181983        1.2731053556
 C          4.9862070606       -1.7596713333        1.3784678826
 C          4.7673695313       -2.5385866853        0.2522688826
 C          4.5560901573       -1.9462399407       -0.9828356695
 C          4.5542744500       -0.5651468572       -1.0963658790
 H          4.3975358665       -0.0679427932       -2.0392755504
 H          4.3857627964       -2.5552823950       -1.8558953892
 H          4.7577890434       -3.6132890363        0.3380227838
 H          5.1531420126       -2.2241386996        2.3371145069
 H          5.1452962357        0.2628035283        2.1240318674
 H          2.9413975570        2.3165279009        1.3618815400
 H          2.6010149390        2.0430339136       -2.2168300985
 H          0.9567883351        0.5277296515       -3.2969912386
 H         -0.4584516946       -0.9450153984       -1.9130004867
 H         -0.4225912312       -0.7962599765        1.8316338557
 C         -0.0161690739       -2.6046762091        0.7846608713
 C          0.9926529134       -3.1362188770       -0.1848924509
 C          1.3748095628       -2.9248927762        1.2470276359
 H          1.5245473254       -3.7861927025        1.8796507184
 H          2.0271332990       -2.0929918954        1.4677990327
 H          0.8511045780       -4.1433567513       -0.5452035315
 H          1.3987421783       -2.4629156283       -0.9229614370
 H         -0.7992031308       -3.2932150316        1.0843846376
