  62
        -98.94124728
 C         -1.8555588005       -0.5993710868        0.0074851554
 C         -2.5674530142       -0.0859281734        1.1213201421
 C         -3.6636089851        0.8440677864        0.8207973404
 C         -3.8838773142        1.2065540747       -0.4557930408
 C         -4.9991992558        2.1002101259       -0.9131754667
 C         -6.2489659638        1.2854281557       -1.2753234702
 C         -6.6547403015        0.2681682629       -0.2086742701
 H         -7.5640076039       -0.2248691061       -0.5591442300
 H         -5.8813734340       -0.5000548369       -0.1363149334
 C         -6.9027077404        0.8700810480        1.1816458080
 H         -7.8220809558        0.4440103749        1.5886949482
 H         -7.0547427740        1.9467706811        1.0973067620
 C         -5.7949633330        0.5935307698        2.1998872411
 H         -5.5760829636       -0.4771791134        2.2211700568
 H         -6.1663675931        0.8705069593        3.1900919237
 C         -4.4798878370        1.3507554309        1.9763464361
 H         -4.6838922096        2.4178785142        1.8661588936
 H         -3.8593076064        1.2095817067        2.8662670600
 H         -7.0733697715        1.9786627957       -1.4518466831
 H         -6.0531141471        0.7467359340       -2.2053923938
 H         -5.2333004314        2.8136822435       -0.1252508678
 H         -4.6626980565        2.6458161840       -1.7964716759
 O         -3.1290029522        0.7591522892       -1.4898116214
 C         -2.1014988370       -0.1576069407       -1.2938557498
 O         -1.5049077514       -0.4731586815       -2.3387319980
 H          0.5446444744        0.7016428477        0.5764480190
 C          1.0508570760        0.0702276226       -0.1439692742
 C          0.5172529544       -1.1796812947       -0.4374393569
 C          1.1751007884       -1.9792800582       -1.3615193929
 C          2.3226853764       -1.5254826182       -1.9893054504
 C          2.8407709876       -0.2757556140       -1.7073797583
 C          2.1948774366        0.5294247542       -0.7768900505
 N          2.7183695944        1.7984627379       -0.4759438965
 S          4.3678820642        1.9282810424       -0.2277803236
 O          4.5300951289        3.0700397957        0.6451209438
 O          5.0470393822        2.0066981921       -1.4970048140
 C          4.8310143217        0.4245047812        0.6137506116
 C          4.2548525122        0.1642127825        1.8414923801
 C          4.5709138500       -1.0162566775        2.4936371339
 C          5.4532046098       -1.9124314649        1.9093987705
 C          6.0275978715       -1.6340598820        0.6791401290
 C          5.7135543068       -0.4553594734        0.0214469253
 H          6.1347676336       -0.2004467183       -0.9372684853
 H          6.7146150104       -2.3319201571        0.2284255840
 H          5.6939622484       -2.8323910762        2.4182782310
 H          4.1253491581       -1.2337345630        3.4511371143
 H          3.5768575158        0.8841226982        2.2716569397
 H          2.1988188041        2.3026571549        0.2268043983
 H          3.7218089133        0.0980422786       -2.2033136438
 H          2.8168744737       -2.1524332937       -2.7155685775
 H          0.7750838736       -2.9474256564       -1.6126878607
 C         -0.7402077282       -1.5911830484        0.2858186372
 H         -0.5531458217       -1.4867190973        1.3680311922
 C         -1.1246664015       -3.0451477444        0.0568585303
 C         -2.5487828110       -3.4946624898        0.1840173629
 C         -1.8789409739       -3.4985100893       -1.1556882807
 H         -1.6190007938       -4.4512934670       -1.5934786967
 H         -2.1621046763       -2.7497732599       -1.8784327474
 H         -3.2966373692       -2.7395149052        0.3790526381
 H         -2.7488120602       -4.4402554072        0.6652252512
 H         -0.3729995797       -3.7263956191        0.4433544661
 O         -2.2929652975       -0.3880450208        2.3138991118
