  62
        -98.93690682
 C          2.0259610452        1.5060537929        0.2458134819
 C          1.6735163049        0.4704967740       -0.6529377488
 C          2.6414004487       -0.6395268720       -0.8023692099
 C          3.7703381666       -0.6278519164       -0.0717429413
 C          4.8460843757       -1.6777676145       -0.0232492700
 C          4.4321113766       -2.9043875357        0.8120338337
 C          2.9771658884       -3.3416399371        0.6502779381
 H          2.7725736152       -4.1005653542        1.4098813256
 H          2.3251478903       -2.4911990696        0.8602418487
 C          2.6241480608       -3.9383225364       -0.7104991620
 H          3.1978796210       -4.8571015410       -0.8537128959
 H          1.5656679914       -4.2108652011       -0.6909637239
 C          2.8685919930       -3.0354541754       -1.9193492758
 H          2.4265664018       -3.5299192677       -2.7897585790
 H          3.9330316310       -2.9506322091       -2.1215360449
 C          2.2270193816       -1.6518756287       -1.8438217311
 H          2.3663628584       -1.1599361561       -2.8152612689
 H          1.1434524877       -1.7675014370       -1.7326531256
 H          5.0945773950       -3.7342834728        0.5616033004
 H          4.5848445630       -2.6573340777        1.8652509408
 H          5.1262766654       -1.9649330857       -1.0327181695
 H          5.7185461776       -1.2170339952        0.4449665148
 O          4.0555180172        0.3732250833        0.8067621856
 C          3.2132899550        1.4504523890        0.9849033428
 O          3.6202516216        2.2837826339        1.8185637085
 H         -0.9965802388        2.3862602902       -1.1300122865
 C         -1.2241617609        2.1196941382       -0.1102003718
 C         -0.2517987270        2.2541073066        0.8670787551
 C         -0.5586963760        1.8838265986        2.1724155941
 C         -1.8150242763        1.4009620152        2.4920896563
 C         -2.7753785846        1.2386690226        1.5088034367
 C         -2.4645529434        1.5777783672        0.1981892392
 N         -3.3975849630        1.3382151072       -0.8239768993
 S         -4.2767701266       -0.0821993276       -0.7600199747
 O         -4.5272019068       -0.4396439228       -2.1400955966
 O         -5.4575896866        0.1306061652        0.0436805945
 C         -3.2653878702       -1.3303941208        0.0284851418
 C         -3.8888924903       -2.1857758140        0.9162938560
 C         -3.1490700303       -3.1835584674        1.5292675137
 C         -1.7967929758       -3.3054287398        1.2511276447
 C         -1.1864855544       -2.4385669761        0.3590895446
 C         -1.9216036767       -1.4444037234       -0.2680770018
 H         -1.4393880713       -0.7607615264       -0.9500438909
 H         -0.1313649922       -2.5209116444        0.1500674777
 H         -1.2137984179       -4.0747720932        1.7324828448
 H         -3.6263473907       -3.8564778511        2.2233203292
 H         -4.9389042846       -2.0442703141        1.1156946107
 H         -3.0220235200        1.4862121208       -1.7497384879
 H         -3.7546424802        0.8476356666        1.7354280111
 H         -2.0453613178        1.1334727175        3.5119596713
 H          0.2025109997        1.9740906776        2.9348728348
 C          1.1412006623        2.7133923889        0.5207705579
 H          1.5781163707        3.1809460140        1.4167222008
 C          1.1514134211        3.7758036341       -0.5694958772
 C          2.4453509692        4.1947710964       -1.2001302768
 C          1.4106207554        3.4814499358       -2.0148725940
 H          0.8621846507        4.0480712463       -2.7536978663
 H          1.5973733220        2.4594988328       -2.3030510943
 H          2.6169247263        5.2446095953       -1.3835981720
 H          3.3332155808        3.6498764086       -0.9126315076
 H          0.4385437278        4.5677561966       -0.3591962179
 O          0.6077707541        0.4418247586       -1.3223463748
