  62
        -98.94118577
 C         -1.6386621935       -0.4871641631        0.9471046388
 C         -2.8741932025       -1.0494801460        0.5437029583
 C         -3.9967280754       -0.1061989796        0.4146380872
 C         -3.8021605699        1.2004064354        0.6654740504
 C         -4.8425493617        2.2708407785        0.5110293420
 C         -4.8104244045        2.8793948853       -0.8979816122
 C         -4.8060943169        1.8410756021       -2.0199990418
 H         -4.8146302934        2.3854809994       -2.9668153830
 H         -3.8704654604        1.2781932396       -1.9818499072
 C         -5.9875442209        0.8616942880       -1.9833898259
 H         -6.3865035662        0.7561097466       -2.9945078993
 H         -6.7863125929        1.2672602622       -1.3612848911
 C         -5.6307497217       -0.5439078198       -1.4963593228
 H         -4.7691109369       -0.9177078305       -2.0552563689
 H         -6.4743306739       -1.2039681075       -1.7156600395
 C         -5.3261689683       -0.6730095838        0.0013977479
 H         -6.1340110287       -0.2225186701        0.5815355690
 H         -5.2848613359       -1.7396877345        0.2402528591
 H         -5.6757316129        3.5352494461       -1.0101997005
 H         -3.9079225541        3.4876443701       -0.9918189973
 H         -5.8245883042        1.8475762306        0.7128765737
 H         -4.6385453458        3.0560543528        1.2408828060
 O         -2.6020691524        1.7058483402        1.0477439648
 C         -1.4986837277        0.8836600389        1.1900135162
 O         -0.4609490395        1.4799037163        1.5404119360
 H          1.9669051338       -0.2837552344        0.2808348508
 C          1.5290829442       -0.9361091119       -0.4590622147
 C          0.3094493383       -1.5434121394       -0.1981112264
 C         -0.2565672264       -2.3603948394       -1.1711720642
 C          0.3962112150       -2.5666677143       -2.3724390547
 C          1.6260668227       -1.9816235830       -2.6187327338
 C          2.1966276392       -1.1580673753       -1.6552348753
 N          3.4292464962       -0.5339784908       -1.8843863627
 S          4.5075371101       -0.2662152717       -0.6354944105
 O          5.7858687301       -0.1117530810       -1.2967693342
 O          4.4331549969       -1.3040634274        0.3659866752
 C          4.0195678414        1.3020125443        0.0486092150
 C          3.8958861184        2.3774742719       -0.8082300915
 C          3.5345999645        3.6089819643       -0.2872861289
 C          3.3063475533        3.7440952522        1.0737815995
 C          3.4390460455        2.6558995172        1.9214100565
 C          3.8002987643        1.4215633233        1.4059529590
 H          3.9087698745        0.5483452467        2.0304859440
 H          3.2561570706        2.7616695728        2.9786968928
 H          3.0206555623        4.7024775059        1.4777831984
 H          3.4287623921        4.4589485213       -0.9422373113
 H          4.0841165209        2.2342546297       -1.8593057709
 H          3.8921733809       -0.7942572209       -2.7425062300
 H          2.1403849736       -2.1563181602       -3.5516674744
 H         -0.0519091285       -3.2003169394       -3.1230787404
 H         -1.2151266602       -2.8178188574       -0.9810017814
 C         -0.3686451349       -1.3032383793        1.1295769316
 H          0.3024302660       -0.6737485867        1.7298105074
 C         -0.5816340712       -2.6089394980        1.8708700191
 C          0.6147718447       -3.3124072256        2.4353306924
 C         -0.3707349802       -2.6536978972        3.3526560057
 H         -1.0201583172       -3.2792877940        3.9465620583
 H         -0.0763893356       -1.7382356971        3.8453949575
 H          1.5802236332       -2.8465618198        2.2991024151
 H          0.6421733994       -4.3907904882        2.3995702057
 H         -1.3778791230       -3.2161239591        1.4621913549
 O         -3.0595579766       -2.2711547399        0.2991829760
