  62
        -98.94544128
 C          2.6536569651        1.0537907730        0.2629684218
 C          2.5113765577        0.2885264535       -0.9203613108
 C          3.1121560889       -1.0529478614       -0.8899746636
 C          3.7598011499       -1.4620085643        0.2161003687
 C          4.3647460466       -2.8227339595        0.4029864609
 C          3.3610209189       -3.7905729598        1.0453846228
 C          1.9878541714       -3.7953118789        0.3721971482
 H          1.3715657674       -4.5342093624        0.8897000771
 H          1.5071725787       -2.8246195273        0.5205732288
 C          2.0167749549       -4.1157906477       -1.1287114621
 H          1.2189145847       -4.8285153521       -1.3476325809
 H          2.9623376949       -4.5944549097       -1.3870814468
 C          1.7934395568       -2.9074176979       -2.0404059357
 H          1.6149790461       -3.2766626873       -3.0540312124
 H          0.8908151435       -2.3735533790       -1.7273378547
 C          2.9540680271       -1.9064763119       -2.1161122625
 H          3.8817110230       -2.4362828775       -2.3422273586
 H          2.7413229538       -1.2151248540       -2.9366685178
 H          3.7831337805       -4.7965747026        1.0167282059
 H          3.2271124327       -3.5076519125        2.0921359932
 H          5.2327211383       -2.7269847549        1.0574254484
 H          4.6886829767       -3.2062592425       -0.5622702290
 O          3.8916909048       -0.6906132881        1.3260173343
 C          3.3199981274        0.5709383430        1.3876764180
 O          3.4690587230        1.1509647331        2.4830927215
 O          1.9133258062        0.7013684843       -1.9472874189
 C          2.0107442388        2.4269988645        0.3528700216
 C          0.5244834592        2.2897206476        0.1240515699
 C         -0.1980089478        3.0791568601       -0.7597798105
 C         -1.5531810361        2.8627441232       -0.9445060076
 C         -2.2157730942        1.8652505273       -0.2534609061
 C         -1.5045799158        1.0775775585        0.6426560694
 C         -0.1507407037        1.3007765279        0.8296930469
 H          0.4034870783        0.6801375197        1.5251719506
 N         -2.1720240051        0.0583075059        1.3541084780
 S         -2.8708149327       -1.1563356869        0.4193055876
 O         -2.9474134368       -2.3084197047        1.2920884046
 O         -2.1643313419       -1.3405864780       -0.8271176017
 C         -4.5147469755       -0.5460474834        0.1148946828
 C         -4.9539490419       -0.3605356812       -1.1810856441
 C         -6.2374306489        0.1204657301       -1.3900405853
 C         -7.0530144699        0.4055062901       -0.3055668449
 C         -6.5970658158        0.2108884524        0.9899803132
 C         -5.3159463705       -0.2708622130        1.2059095588
 H         -4.9225023004       -0.4395690817        2.1943814201
 H         -7.2341903790        0.4338257662        1.8305590441
 H         -8.0500507110        0.7819713345       -0.4711414096
 H         -6.5935979200        0.2723817893       -2.3962656465
 H         -4.2803707339       -0.5886869434       -1.9917649592
 H         -1.5962911315       -0.3625914619        2.0702858313
 H         -3.2686497499        1.6890380897       -0.4019176608
 H         -2.1002956350        3.4780686588       -1.6422584845
 H          0.3024234935        3.8545421840       -1.3159494829
 H          2.1692045716        2.7717116289        1.3853294271
 C          2.6878115067        3.3942140935       -0.5945632209
 C          2.7083796339        4.8604588224       -0.2864459431
 C          3.9634765534        4.0511809628       -0.1639451593
 H          4.7440031449        4.1910750209       -0.8965708068
 H          4.3308835268        3.8178433031        0.8250585400
 H          2.6306671639        5.5605971494       -1.1043744568
 H          2.2265650377        5.1869766963        0.6226801135
 H          2.6081969980        3.0857779044       -1.6304627364
