  62
        -98.94776717
 C         -0.7801162571       -1.2743090851        0.0233804451
 C         -1.4880393633       -0.6146652003        1.0552088658
 C         -2.4042187533        0.4459436282        0.6213177588
 C         -2.4736230671        0.7757178770       -0.6811883218
 C         -3.3741202635        1.8195148461       -1.2835538430
 C         -4.7945959716        1.3143675855       -1.5748078195
 C         -5.6786422124        1.1095213948       -0.3437110460
 H         -5.6672237225        2.0133218863        0.2662076470
 H         -6.7006287239        0.9726502581       -0.7027281321
 C         -5.2953405500       -0.1009416867        0.5192969734
 H         -4.6552599362       -0.7727553749       -0.0573215815
 H         -6.1954792508       -0.6627088322        0.7791441648
 C         -4.5887837547        0.2506335437        1.8288070713
 H         -5.2691920562        0.8105562979        2.4743988548
 H         -4.3311765381       -0.6806812409        2.3397753171
 C         -3.3009472193        1.0657882849        1.6503665219
 H         -3.5460251310        2.0920049134        1.3779664036
 H         -2.7634775476        1.0711384659        2.6020925400
 H         -4.7256044889        0.3780563989       -2.1331694401
 H         -5.2766047103        2.0514618667       -2.2210250396
 H         -3.4266877996        2.6880976537       -0.6277736405
 H         -2.9153811051        2.1159869230       -2.2285560318
 O         -1.7045446967        0.1795696203       -1.6299238925
 C         -0.8710956818       -0.8824058913       -1.3122310875
 O         -0.2742828710       -1.3764029781       -2.2871839528
 H          1.5258595615       -0.2116102617        0.4747546693
 C          2.0937814873       -1.0061924887        0.0132072737
 C          1.5098818156       -2.2578839640       -0.1346932977
 C          2.2564264118       -3.2746521428       -0.7164217385
 C          3.5487604161       -3.0335602307       -1.1489740035
 C          4.1243285915       -1.7856565318       -1.0030944185
 C          3.3874793899       -0.7618095563       -0.4164891920
 N          3.9307108667        0.5210126864       -0.2876777707
 S          3.3925945019        1.6108895359        0.8477593353
 O          4.4160340559        2.6352721128        0.8622877405
 O          3.1189470956        0.9813760392        2.1187354337
 C          1.9094750856        2.3043978767        0.1518428804
 C          0.7986136544        2.4806102798        0.9514288271
 C         -0.3213098764        3.0968261918        0.4170936226
 C         -0.3119265520        3.5198530794       -0.9024754069
 C          0.8067896896        3.3229354333       -1.6969526047
 C          1.9321826338        2.7145807432       -1.1661429461
 H          2.8227120814        2.5539002660       -1.7507528597
 H          0.8059566425        3.6447913571       -2.7259437464
 H         -1.1814470357        4.0069883781       -1.3139012189
 H         -1.1915786491        3.2426661024        1.0361912494
 H          0.8255952859        2.1262722446        1.9705119589
 H          4.9086866148        0.6179648322       -0.5131019725
 H          5.1311971569       -1.5981471793       -1.3431685118
 H          4.1167191622       -3.8303332747       -1.6048281786
 H          1.8260781138       -4.2553117799       -0.8360091801
 C          0.1036319085       -2.4561043466        0.3726225177
 H          0.1409597728       -2.4816667216        1.4728824309
 C         -0.5391338441       -3.7371972007       -0.1217276661
 C         -0.3571317608       -5.0216087086        0.6288646448
 C         -1.6800460914       -4.3187431425        0.6563119790
 H         -2.5083122723       -4.7510205553        0.1150665973
 H         -1.9703320932       -3.8075960109        1.5627985794
 H         -0.2792726227       -5.9407917258        0.0678722248
 H          0.2467803979       -4.9970678763        1.5234410821
 H         -0.5993569952       -3.7783364901       -1.2039251536
 O         -1.3698297517       -0.9055373789        2.2768308104
