  62
        -98.93783257
 C         -1.0002431090       -0.9989777414        0.9370277490
 C         -1.5295811790       -0.8086313509       -0.3619321509
 C         -2.2326279000        0.4665134487       -0.6140096701
 C         -2.3002330608        1.3807929280        0.3693701106
 C         -2.9999101318        2.7127363475        0.3446488814
 C         -4.5286398917        2.5812500862        0.4767851712
 C         -5.1513985708        1.4176819963       -0.2920374496
 H         -4.6592387601        0.4886412064        0.0019932498
 H         -6.1984647707        1.3401649452        0.0124037102
 C         -5.1179530808        1.5479609973       -1.8128365495
 H         -5.7050574714        2.4203132771       -2.1095767590
 H         -5.6043130100        0.6620838873       -2.2290628502
 C         -3.7292561108        1.6717788388       -2.4403717793
 H         -3.3098472516        2.6577751990       -2.2582245886
 H         -3.8504690207        1.5833251795       -3.5243638294
 C         -2.7349916800        0.5882630093       -2.0311107800
 H         -3.1512579092       -0.3930523108       -2.2865168307
 H         -1.8315547500        0.6930852004       -2.6468720399
 H         -4.9859434624        3.5183008461        0.1556024718
 H         -4.7608926217        2.4371219053        1.5345712311
 H         -2.7263754922        3.2516038483       -0.5584750282
 H         -2.6257414423        3.2840974072        1.1971858419
 O         -1.7434454707        1.1718533076        1.5968267905
 C         -1.0634801398        0.0068695179        1.9016802397
 O         -0.5628211799       -0.0097273925        3.0441409797
 O         -1.4421322983       -1.6623495502       -1.2823908415
 C         -0.1845223581       -2.2323429210        1.2932465182
 C          0.8108867222       -2.4781592095        0.1858020381
 C          0.9569350832       -3.6773682989       -0.4964478127
 C          1.8652647133       -3.7777291575       -1.5369568427
 C          2.6232737325       -2.6901094966       -1.9299037419
 C          2.4882156015       -1.4863765272       -1.2464847011
 C          1.6143925314       -1.4044069486       -0.1777113211
 H          1.5097831806       -0.4706299391        0.3546902696
 N          3.2340426307       -0.3526837164       -1.6039322702
 S          2.5574884495        1.1709717330       -1.4484770692
 O          1.1379347695        1.1759259221       -1.7129462293
 O          3.3654002289        2.0042999642       -2.3157729486
 C          2.8863266090        1.6169187121        0.2431506111
 C          4.1834643991        1.5205188527        0.7067794411
 C          4.4489902287        1.8579948020        2.0240188914
 C          3.4191277483        2.2812789207        2.8510449016
 C          2.1229465083        2.3794916100        2.3690864916
 C          1.8533615586        2.0480876607        1.0510062713
 H          0.8548172886        2.0972934102        0.6422598413
 H          1.3156924880        2.6925755289        3.0120367317
 H          3.6238047181        2.5348145801        3.8791782618
 H          5.4550269588        1.7847255925        2.4044675914
 H          4.9542803494        1.1845913638        0.0335863410
 H          3.7746198908       -0.4440539254       -2.4516327003
 H          3.3049055026       -2.7642414355       -2.7636244719
 H          1.9662802241       -4.7126587170       -2.0673540233
 H          0.3404597738       -4.5226927196       -0.2382460233
 H          0.3814237916       -1.9419485112        2.1945542685
 C         -1.0016202372       -3.4570179219        1.6724870973
 C         -2.3862472373       -3.3146894634        2.2289728873
 C         -2.1819373368       -3.9154576623        0.8722796269
 H         -2.3392308159       -4.9779571223        0.7559194962
 H         -2.4484469071       -3.3359129219        0.0031307873
 H         -2.6819544869       -3.9609890442        3.0417790068
 H         -2.7986071181       -2.3177907437        2.2909661380
 H         -0.3851309266       -4.2316901617        2.1180601568
