  62
        -98.94053392
 C         -1.8411235247       -0.7323163143        0.6999484447
 C         -2.1193582196        0.5218513591        0.0998037124
 C         -3.5260292568        0.9514025914        0.1455048588
 C         -4.4454510029        0.1958077001        0.7700228069
 C         -5.9098901458        0.5107545110        0.9097972082
 C         -6.7540260754        0.1006408811       -0.3047562727
 C         -6.5702067544        0.9704782940       -1.5490888768
 H         -7.3720623060        0.7100429516       -2.2428663262
 H         -6.7007984352        2.0192568973       -1.2803416932
 C         -5.2227729536        0.7832264521       -2.2603522756
 H         -5.3886234915        0.6912938752       -3.3361231268
 H         -4.7619752716       -0.1496719817       -1.9274035091
 C         -4.2313088212        1.9280385529       -2.0512120653
 H         -3.3023797046        1.6769349887       -2.5698940417
 H         -4.6278074516        2.8422728444       -2.4984797728
 C         -3.8929775874        2.2100665466       -0.5813190782
 H         -3.0274657020        2.8766982204       -0.5492237233
 H         -4.7318064406        2.7029173693       -0.0903391412
 H         -7.8030820760        0.1515132258       -0.0042509877
 H         -6.5296963054       -0.9398307406       -0.5511450891
 H         -6.2656002660       -0.0451409165        1.7800430374
 H         -6.0395333323        1.5762405375        1.1019917084
 O         -4.1281061841       -0.9743221484        1.3847465397
 C         -2.8347773466       -1.4675391293        1.3557154636
 O         -2.6941847045       -2.5550014813        1.9497561797
 H          1.2229142511        0.2395513258       -0.7517708120
 C          1.3457552338        0.3923477075        0.3092417804
 C          0.5609575973       -0.3233407777        1.1998349240
 C          0.7183904798       -0.0879985962        2.5614962760
 C          1.6427345536        0.8334978787        3.0206386427
 C          2.4236135720        1.5469703363        2.1278796474
 C          2.2586821271        1.3308796774        0.7677150997
 N          3.0733233918        2.0458164465       -0.1464335140
 S          4.6282762197        1.4355187389       -0.2652273997
 O          5.2867995794        1.6030614266        1.0047807764
 O          5.2377448403        2.0920660721       -1.3993701755
 C          4.3899276099       -0.2991094365       -0.6085114283
 C          4.2898957685       -0.7122197908       -1.9220706243
 C          3.9993651398       -2.0408516791       -2.1868862641
 C          3.8004092220       -2.9254625163       -1.1377126343
 C          3.9011924405       -2.4941760384        0.1763586710
 C          4.1967404358       -1.1677251192        0.4471821367
 H          4.2834966512       -0.7945972043        1.4546530214
 H          3.7413926051       -3.1832617571        0.9902403872
 H          3.5639309141       -3.9576069456       -1.3445921993
 H          3.9218602257       -2.3808720020       -3.2072403856
 H          4.4510180468        0.0088365164       -2.7076062538
 H          2.6642781486        2.0941160188       -1.0696912706
 H          3.1607174040        2.2587481764        2.4625651348
 H          1.7561639049        0.9982750541        4.0814627106
 H          0.1040955771       -0.6386884063        3.2608253110
 C         -0.4470535897       -1.3386857364        0.7270703823
 H         -0.5037138720       -2.1357632999        1.4848308662
 C         -0.0197693884       -2.0054116912       -0.5735425287
 C         -0.9888098052       -2.8443013130       -1.3500587006
 C         -0.4887336787       -1.5534830313       -1.9222105344
 H          0.2122771226       -1.5957851708       -2.7432370280
 H         -1.1656196313       -0.7152892928       -1.9708947031
 H         -2.0071866356       -2.8839470060       -0.9907363835
 H         -0.6413066326       -3.7707033454       -1.7810266517
 H          1.0010610105       -2.3716060576       -0.5155369707
 O         -1.2629807513        1.2567646322       -0.4548724613
