  62
        -98.94835575
 C          0.8456539278        1.2151969177        0.5326829866
 C          1.2409432582        0.5429253179       -0.6484064221
 C          2.1761825655       -0.5753689662       -0.4585383010
 C          2.4746803029       -0.9780860564        0.7893437936
 C          3.4602913355       -2.0583144537        1.1284456911
 C          4.8599987497       -1.4699007247        1.3583229388
 C          5.3145613113       -0.5091832235        0.2588910477
 H          4.6767475052        0.3776944183        0.2752449497
 H          6.3249845000       -0.1815208951        0.5133446905
 C          5.3127215760       -1.1099566106       -1.1540225129
 H          5.2988055646       -2.1986019748       -1.0925448600
 H          6.2409825675       -0.8259027821       -1.6541714522
 C          4.1628297035       -0.6370392994       -2.0460509511
 H          4.1140590189        0.4545802561       -2.0314354762
 H          4.3833342456       -0.9411053151       -3.0725093692
 C          2.7762791218       -1.1900996896       -1.6907642569
 H          2.0943511528       -0.9425565797       -2.5087216897
 H          2.8318700255       -2.2752308394       -1.5990699918
 H          5.5718507233       -2.2930922698        1.4428255016
 H          4.8555995492       -0.9263878658        2.3061535996
 H          3.1303385918       -2.5547999035        2.0427870399
 H          3.4935012335       -2.7851389175        0.3193671738
 O          1.9470764803       -0.4016416598        1.9014794653
 C          1.1727907120        0.7432213323        1.8030859295
 O          0.8377399399        1.2359267019        2.9005957289
 H         -1.7110357897        0.6026030138        1.0909135014
 C         -2.0731815483        1.1918203197        0.2601478580
 C         -1.2941758464        2.2331949196       -0.2299732952
 C         -1.7862894335        2.9963313685       -1.2806921743
 C         -3.0241051948        2.7124511855       -1.8309658367
 C         -3.7942636939        1.6722208924       -1.3458476133
 C         -3.3146660454        0.9096409181       -0.2858974309
 N         -4.0853071716       -0.1333657486        0.2470090282
 S         -3.3719355196       -1.4654848623        0.9400272146
 O         -4.4168250658       -2.4691246668        0.9282345602
 O         -2.8400573190       -1.1411182673        2.2403781860
 C         -2.0644164445       -1.9929115493       -0.1524941692
 C         -2.2653787950       -1.9700527707       -1.5181119405
 C         -1.2823205505       -2.4817933890       -2.3486382373
 C         -0.1299459290       -3.0240671949       -1.8034316307
 C          0.0588308187       -3.0375480282       -0.4308794950
 C         -0.9135117656       -2.5111274738        0.4034855540
 H         -0.7991679645       -2.4892013606        1.4764896970
 H          0.9543247896       -3.4577597162       -0.0024083934
 H          0.6250098618       -3.4379951217       -2.4525217674
 H         -1.4204118023       -2.4612969523       -3.4175078275
 H         -3.1763935750       -1.5583378584       -1.9203850743
 H         -4.9254670513       -0.3633950658       -0.2621186857
 H         -4.7605288466        1.4529978407       -1.7734099230
 H         -3.3933839779        3.3095032045       -2.6506677891
 H         -1.2010819587        3.8119371770       -1.6713426622
 C          0.0321368287        2.4931752649        0.4397096728
 H         -0.1737972216        2.7957535990        1.4774214440
 C          0.8531417204        3.5754801770       -0.2314001888
 C          0.6151824788        5.0176472445        0.0971259703
 C          1.8552856757        4.3324533100        0.5852359294
 H          2.8013726242        4.5906844083        0.1334330645
 H          1.9267458982        4.0859231341        1.6351019145
 H          0.7135329524        5.7502171279       -0.6896561877
 H         -0.1540416647        5.2454703102        0.8195181400
 H          1.1300547287        3.3188744833       -1.2473748779
 O          0.8571227252        0.8726747668       -1.7995635789
