  62
        -98.94882216
 C         -1.8963106907       -0.7419736203       -0.2927565443
 C         -1.0689243548       -1.5376292202       -1.1186996230
 C         -0.4648618293       -2.7170207783       -0.4830763166
 C         -0.6935033417       -2.9465964726        0.8231609675
 C         -0.1263158823       -4.0968175392        1.6036370347
 C          1.2153436160       -3.7322136181        2.2522517946
 C          2.2216769832       -3.1142056542        1.2818035586
 H          1.8576663440       -2.1289576807        0.9796064085
 H          3.1466888168       -2.9446790951        1.8382433840
 C          2.5159417374       -3.9731475220        0.0438830422
 H          3.5949172318       -3.9822543431       -0.1245531662
 H          2.2080799285       -5.0030917757        0.2290417546
 C          1.8697627915       -3.4723079743       -1.2484035953
 H          2.3108677721       -4.0243858206       -2.0828161060
 H          2.1178428630       -2.4183133567       -1.3861526139
 C          0.3482697333       -3.6371308689       -1.3523845202
 H          0.0607014103       -3.4017514122       -2.3816477938
 H          0.0808811929       -4.6773194340       -1.1523816754
 H          1.6398909022       -4.6346922949        2.6971811584
 H          1.0308390695       -3.0100652405        3.0513643554
 H         -0.0001232306       -4.9511076784        0.9405112399
 H         -0.8382014878       -4.3592727729        2.3884756097
 O         -1.4619897849       -2.1379995950        1.5954321426
 C         -2.0774341964       -1.0158971875        1.0631823988
 O         -2.7603790819       -0.3685828473        1.8804119837
 O         -0.8519438476       -1.2806892453       -2.3345107721
 C         -2.5754459391        0.4846157911       -0.8795025566
 C         -2.1457906279        1.7060578979       -0.1051113165
 C         -3.0199325318        2.6574186851        0.4017464504
 C         -2.5375655416        3.7066598146        1.1661613407
 C         -1.1901779232        3.8182423279        1.4545199416
 C         -0.3039212353        2.8806509827        0.9333683484
 C         -0.7859897331        1.8620648377        0.1310917036
 H         -0.1005279727        1.1359377336       -0.2741216806
 N          1.0702028100        2.9619858369        1.1922585575
 S          2.0569402909        1.6103869601        1.1975866203
 O          1.3539107276        0.4090185488        1.5788893510
 O          3.1710465227        1.9944344338        2.0395225711
 C          2.6244047233        1.5149780422       -0.4870621818
 C          2.2129059480        0.4832678136       -1.3046128399
 C          2.6520327088        0.4460075539       -2.6185258751
 C          3.4978620235        1.4379756410       -3.0891873808
 C          3.9107157021        2.4658284277       -2.2540125286
 C          3.4702173152        2.5084154333       -0.9414907491
 H          3.7720839851        3.2840624758       -0.2576611295
 H          4.5711846353        3.2336068026       -2.6234884031
 H          3.8368388727        1.4068023671       -4.1126014945
 H          2.3178062828       -0.3525111953       -3.2622544588
 H          1.5488714836       -0.2715763199       -0.9100408690
 H          1.3404806823        3.6397885656        1.8886700641
 H         -0.8242715646        4.6168013103        2.0817144082
 H         -3.2263708967        4.4369205291        1.5634947524
 H         -4.0780440883        2.5696952383        0.2173480473
 H         -2.1969977714        0.5692671821       -1.9090493412
 C         -4.0761196600        0.2891963395       -0.9228778897
 C         -4.9006752718        0.9918287210       -1.9587473071
 C         -4.6745460960       -0.4860815647       -2.0568902474
 H         -5.4985400933       -1.1516143006       -1.8476294133
 H         -3.9990505105       -0.8534922070       -2.8154498169
 H         -5.8847138020        1.3407893643       -1.6843131233
 H         -4.3843048210        1.6305972856       -2.6589446359
 H         -4.5033111333        0.1438327473        0.0633122785
