  62
        -98.94477900
 C         -2.5950995390       -0.1322528617        0.1065667002
 C         -2.3200855494        0.8449218584        1.0921283802
 C         -2.1550223703        2.2210250386        0.6078331103
 C         -2.2944781407        2.4763857886       -0.7056509297
 C         -2.1581807217        3.8312845287       -1.3370764896
 C         -0.7308248919        4.0884589796       -1.8361027699
 C          0.3568479284        3.7944606302       -0.8025234101
 H          0.4121671591        2.7183052402       -0.6209141302
 H          1.3107311382        4.0868689108       -1.2476916802
 C          0.1814043282        4.5231033300        0.5368302100
 H         -0.4825864223        5.3798615796        0.4122972202
 H          1.1542197781        4.9068917106        0.8512654798
 C         -0.3329983910        3.6405164896        1.6764625400
 H          0.2472590296        2.7131010499        1.7048726498
 H         -0.1594206611        4.1654370996        2.6202608500
 C         -1.8234781908        3.2785273387        1.6218667603
 H         -2.1023679104        2.8597461684        2.5934839203
 H         -2.4166655614        4.1801603983        1.4534056705
 H         -0.6624246226        5.1323519597       -2.1493815298
 H         -0.5499794617        3.4573169498       -2.7090946099
 H         -2.8423158419        3.8794828684       -2.1864180595
 H         -2.4423863320        4.5907516685       -0.6111397195
 O         -2.5642469103        1.5126355185       -1.6229757497
 C         -2.6758195694        0.1817912984       -1.2494574798
 O         -2.8584815991       -0.6033725217       -2.1997619498
 H         -0.1732181185       -0.8002516402        0.3628718197
 C         -0.2944509580       -1.7862499203       -0.0609654104
 C         -1.5543522777       -2.3710553910       -0.0738960702
 C         -1.6875052670       -3.6451743911       -0.6094675103
 C         -0.5833777367       -4.3033882903       -1.1250218005
 C          0.6668225530       -3.7140267496       -1.1155083407
 C          0.8099567823       -2.4356367695       -0.5841453706
 N          2.0542377219       -1.7848838988       -0.6050156608
 S          2.3601260613       -0.5163815587        0.4595753792
 O          2.1060165818       -0.9315608889        1.8221598692
 O          1.6643091205        0.6585334209        0.0008816694
 C          4.1135131311       -0.3201492476        0.2046461889
 C          4.9931947917       -1.0128794071        1.0152721187
 C          6.3550019716       -0.8821449063        0.7934632184
 C          6.8118342009       -0.0665160859       -0.2309611316
 C          5.9172778803        0.6242463536       -1.0348359814
 C          4.5541820304        0.4975249128       -0.8182484911
 H          3.8207311600        1.0193526824       -1.4109120510
 H          6.2758013698        1.2605552539       -1.8277395214
 H          7.8719478708        0.0341621448       -0.4017443718
 H          7.0527459120       -1.4148814759        1.4191825183
 H          4.5921457822       -1.6250072974        1.8071062687
 H          2.8393633722       -2.4141262083       -0.6947406010
 H          1.5232668032       -4.2286402790       -1.5231693909
 H         -0.6995670062       -5.2930304004       -1.5402790706
 H         -2.6542589167       -4.1211069716       -0.6268987601
 C         -2.6998558180       -1.5878280918        0.5224680201
 H         -2.5714918278       -1.5879951118        1.6164321301
 C         -4.0630898677       -2.1565040726        0.1908686903
 C         -4.6529970669       -3.2461799030        1.0342222803
 C         -5.2126348078       -1.8582655733        1.1046655805
 H         -6.1814973380       -1.6668263839        0.6687818507
 H         -5.0043788080       -1.2654095233        1.9836188005
 H         -5.2426791365       -4.0102572933        0.5506289004
 H         -4.0715637665       -3.5994366727        1.8725751902
 H         -4.2597812779       -2.1666192926       -0.8750708297
 O         -2.2262012790        0.5777849584        2.3226810602
