  62
        -98.94626291
 C         -2.3877615629       -0.5331703753       -0.0113186135
 C         -1.3926731117       -0.7286291633        0.9739156216
 C         -0.6993208178       -2.0221998874        0.9487786859
 C         -1.0360185433       -2.9268034395        0.0118061768
 C         -0.3271571975       -4.2285368240       -0.2305133366
 C          0.9774022082       -3.9625854585       -1.0107109785
 C          2.2551883919       -4.2924463628       -0.2381169427
 H          2.3869746258       -5.3767504279       -0.2135641592
 H          3.0892024331       -3.8686094141       -0.8021903326
 C          2.3150481161       -3.7766627435        1.2030113292
 H          3.3585950627       -3.8358607199        1.5192447222
 H          1.7520510278       -4.4467635577        1.8548815128
 C          1.8148437557       -2.3423582946        1.4184385706
 H          1.8779405706       -1.7711524175        0.4911104981
 H          2.4738445356       -1.8532341890        2.1393332676
 C          0.3796368694       -2.2454972458        1.9713721379
 H          0.1499207288       -3.1380555707        2.5598078721
 H          0.3192809328       -1.3821443279        2.6400843768
 H          0.9943988992       -2.9106460888       -1.3073924300
 H          0.9754062533       -4.5460792990       -1.9333313137
 H         -0.9953441320       -4.8635611550       -0.8129443606
 H         -0.1152170113       -4.7186598801        0.7172094745
 O         -2.0236231904       -2.7182224045       -0.8975704994
 C         -2.6999154923       -1.5103159971       -0.9532102337
 O         -3.5459874773       -1.4316496644       -1.8689917604
 O         -1.0858884602        0.1483901595        1.8255404081
 C         -3.0643020832        0.8213569279       -0.1268796287
 C         -2.0031758141        1.8861386362       -0.2796675016
 C         -2.0469619716        3.1153886185        0.3658660659
 C         -1.0144981326        4.0251282996        0.2116287743
 C          0.0901448890        3.7212882332       -0.5631460628
 C          0.1365522276        2.4989642500       -1.2238411638
 C         -0.9206812104        1.6123584614       -1.1063617712
 H         -0.8731449771        0.6697381713       -1.6321507328
 N          1.2439591823        2.1277098339       -2.0141193823
 S          2.1011128650        0.7558580892       -1.5748178352
 O          3.1754728337        0.6652329141       -2.5407469239
 O          1.2189239926       -0.3798706315       -1.5003639738
 C          2.7895473868        1.1426738668        0.0254244626
 C          4.1293923522        1.4726682579        0.1016900178
 C          4.6674708544        1.8222441631        1.3292248226
 C          3.8572987739        1.8451272128        2.4546785059
 C          2.5140973312        1.5170649238        2.3592594313
 C          1.9682846714        1.1619941367        1.1348041615
 H          0.9266753390        0.8952221001        1.0485048895
 H          1.8755774935        1.5316409173        3.2280964798
 H          4.2737583795        2.1189454503        3.4112596151
 H          5.7126349977        2.0760326357        1.4038698601
 H          4.7191238144        1.4381461727       -0.8001250643
 H          1.8968762576        2.8816536840       -2.1792590364
 H          0.9093232653        4.4182530089       -0.6570429012
 H         -1.0611313919        4.9756578000        0.7206982524
 H         -2.8857434268        3.3575915698        0.9978326233
 H         -3.6625346653        0.7888948912       -1.0495481604
 C         -3.9883963629        1.0592753575        1.0495302752
 C         -5.2209880139        1.8961730242        0.8880868211
 C         -5.3389694324        0.4110719757        1.0483795789
 H         -5.7240211800        0.0187863941        1.9775553695
 H         -5.6012012554       -0.1809363207        0.1832694232
 H         -5.5303211819        2.5234155591        1.7105207964
 H         -5.4176373942        2.3155093853       -0.0871145170
 H         -3.4555224551        1.1043340465        1.9922655794
