  62
        -98.93753914
 C          2.3160959100        0.6963162038        0.0642458722
 C          3.3358736770        0.3847701259        0.9956517922
 C          4.2827543870       -0.6776207680        0.6159222006
 C          4.1328196781       -1.3007456538       -0.5678791657
 C          4.9045396468       -2.4393777934       -1.2018415836
 C          6.2531740883       -2.8787132365       -0.6381390517
 C          7.3792990569       -1.8595634235       -0.8094527277
 H          8.2598167221       -2.2302772048       -0.2802871136
 H          7.6315228068       -1.7966534254       -1.8710387094
 C          7.0680601611       -0.4451601724       -0.3265757367
 H          7.9470600119        0.1754112477       -0.5211414928
 H          6.2458632574       -0.0296505650       -0.9127929807
 C          6.7314801666       -0.3204384918        1.1579277986
 H          7.5315540620       -0.7624764143        1.7548371560
 H          6.6861950018        0.7455963902        1.3965716827
 C          5.3946199506       -0.9478168484        1.5886106485
 H          5.4981253684       -2.0153168323        1.7674020361
 H          5.0937242739       -0.4852593878        2.5330996915
 H          6.5397614972       -3.7810688123       -1.1851232849
 H          6.1505390246       -3.1631888290        0.4048236867
 H          4.2260950384       -3.2995179521       -1.1874099176
 H          5.0290628741       -2.1647565452       -2.2541909384
 O          3.1213979599       -0.9778568037       -1.4257644937
 C          2.1975781275        0.0157816671       -1.1457980236
 O          1.3528748702        0.1864378725       -2.0455459383
 H         -0.8280502831        1.4818963157       -1.2606089644
 C         -1.0048325548        1.0593175728       -0.2839962690
 C         -0.0205768771        1.1366478819        0.6888661699
 C         -0.2677408100        0.5632155198        1.9333415493
 C         -1.4678501762       -0.0709601747        2.1928863573
 C         -2.4435266387       -0.1566221117        1.2146744728
 C         -2.2053601958        0.4075479105       -0.0308509344
 N         -3.1784061419        0.2980544120       -1.0378603935
 S         -4.7615946989        0.7183577487       -0.6846011031
 O         -5.3566294826        1.0658421231       -1.9565663690
 O         -4.8240898042        1.7256488291        0.3492915862
 C         -5.4890705443       -0.7984879266       -0.1004329523
 C         -5.4145701028       -1.9124022007       -0.9134941627
 C         -5.9824033422       -3.0986093105       -0.4769479991
 C         -6.6144074759       -3.1499813318        0.7567024003
 C         -6.6842841378       -2.0219334089        1.5596348853
 C         -6.1171088310       -0.8324852016        1.1291376771
 H         -6.1418514906        0.0680982377        1.7218293675
 H         -7.1764094848       -2.0638930919        2.5180177052
 H         -7.0549304704       -4.0749311934        1.0939513482
 H         -5.9296828768       -3.9779828179       -1.0985440598
 H         -4.9168878975       -1.8307158143       -1.8655618657
 H         -2.8865332177        0.6735917305       -1.9282009430
 H         -3.3797056776       -0.6547351526        1.4072345400
 H         -1.6459263769       -0.5071109317        3.1640529246
 H          0.5000730792        0.6164486313        2.6925532590
 C          1.3182206701        1.7824113312        0.4305043641
 H          1.6806810496        2.1995635124        1.3797679797
 C          1.2747269790        2.8903899462       -0.6007824143
 C          0.6078858041        4.1870019465       -0.2540733714
 C          2.0990864218        4.1228395681       -0.3872049540
 H          2.5612757972        4.5881340699       -1.2449585516
 H          2.6949987916        4.1761328601        0.5120485304
 H          0.0432803086        4.6988397045       -1.0186500262
 H          0.1888905155        4.2812518618        0.7364874051
 H          1.1834057197        2.5297064301       -1.6181315183
 O          3.4499400736        0.9680499383        2.1066568797
