  62
        -98.94717204
 C          1.6032533643        1.5665911315       -0.2429666761
 C          2.7626418196        1.2274127948        0.5014382418
 C          3.5509510325        0.1016409243       -0.0094400127
 C          3.1624974071       -0.5295566342       -1.1320734678
 C          3.8757067344       -1.6769698437       -1.7952216203
 C          3.5372302384       -3.0556568729       -1.2114843034
 C          4.1092618940       -3.3336775928        0.1789060562
 H          3.9694285910       -4.3985530269        0.3754947223
 H          5.1831669669       -3.1444811500        0.1725471071
 C          3.4498036339       -2.5298797691        1.3086729231
 H          2.4981071098       -2.1204549878        0.9620443623
 H          3.2271751246       -3.1936481727        2.1469326681
 C          4.3078319280       -1.3876172414        1.8529530341
 H          3.7351103837       -0.8660343506        2.6239339990
 H          5.2081320940       -1.7937347840        2.3194430203
 C          4.7281379401       -0.3567257827        0.7966641734
 H          5.4969344132       -0.7744885005        0.1469307871
 H          5.1402802229        0.5147237029        1.3111599523
 H          2.4517105840       -3.1698599233       -1.1874333963
 H          3.9338904679       -3.8052197512       -1.9002724015
 H          4.9527007746       -1.5144426399       -1.7428640389
 H          3.5750068146       -1.6652668082       -2.8453512956
 O          2.0535158113       -0.1641514131       -1.8268405392
 C          1.2334682575        0.8695208349       -1.3928209471
 O          0.2392716714        1.0562496298       -2.1205507446
 O          3.1215252513        1.8405638812        1.5407643977
 C          0.7222547765        2.6847876556        0.2925726347
 C         -0.5283890937        2.0388156933        0.8340287420
 C         -0.5300331155        1.5214403901        2.1265928849
 C         -1.6244829609        0.8285854525        2.6100514571
 C         -2.7302251878        0.6133757941        1.8055745368
 C         -2.7300130950        1.1139114734        0.5106120371
 C         -1.6474921745        1.8432500494        0.0393783147
 H         -1.6597088882        2.2157059081       -0.9723896835
 N         -3.8205762117        0.8368736119       -0.3360645324
 S         -4.2882596157       -0.7706397294       -0.4074730924
 O         -4.8055719567       -0.9664743329       -1.7439493866
 O         -5.2171176497       -1.0421932428        0.6627198430
 C         -2.8028099168       -1.7321762588       -0.1585640459
 C         -1.7175485018       -1.5080730141       -0.9817253387
 C         -0.5628966869       -2.2470755951       -0.7819890523
 C         -0.5099541675       -3.1932067752        0.2293541671
 C         -1.6104220622       -3.4099223274        1.0441671506
 C         -2.7675196987       -2.6731452131        0.8510355124
 H         -3.6432628315       -2.8044247270        1.4657015014
 H         -1.5672198164       -4.1466850654        1.8299617803
 H          0.3934201891       -3.7630424906        0.3842885020
 H          0.2893835563       -2.0615610259       -1.4174374434
 H         -1.7596389944       -0.7595315194       -1.7573358426
 H         -3.7026920227        1.2096764229       -1.2676296699
 H         -3.5859588615        0.0582047815        2.1546475989
 H         -1.6136665924        0.4405005965        3.6170234040
 H          0.3477239571        1.6559707487        2.7427279634
 H          1.2794701272        3.1166224214        1.1342323304
 C          0.4642305401        3.7709767988       -0.7293822559
 C         -0.1132081709        5.0772174426       -0.2750083671
 C          1.3159174686        5.0034716242       -0.7191432144
 H          1.5868913678        5.4494430892       -1.6644392704
 H          2.0888901889        5.0717592257        0.0321766755
 H         -0.8258501597        5.5771871196       -0.9130558836
 H         -0.3112283858        5.1930073817        0.7798524595
 H          0.1604954417        3.3934127363       -1.6977836402
