  62
        -98.93517777
 C          1.5781695312        0.1221356892       -0.7366206800
 C          2.8614338023        0.2504195390       -1.3225638734
 C          3.9980674658       -0.3183261005       -0.5775558199
 C          3.7794659266       -0.8849994953        0.6234039305
 C          4.7224250095       -1.5724162812        1.5887941698
 C          6.2347817592       -1.4341505189        1.4354651937
 C          6.7791101177       -0.0306924963        1.7000740544
 H          6.6749403987        0.1867538962        2.7660948712
 H          7.8452779496       -0.0271956576        1.4630315308
 C          6.0959860268        1.0982708507        0.9322051590
 H          5.0490479991        1.1673571752        1.2349375751
 H          6.5762403391        2.0372422689        1.2210357501
 C          6.1664550310        0.9902761696       -0.5897559684
 H          5.7844500588        1.9272766947       -1.0041572269
 H          7.2069690938        0.8866270719       -0.9036047962
 C          5.3496499019       -0.1557540102       -1.2112995514
 H          5.9008139612       -1.0928517023       -1.1869228930
 H          5.1688664522        0.0913466258       -2.2615789013
 H          6.6846975624       -2.1057428637        2.1718260475
 H          6.5483761207       -1.7861183263        0.4570653855
 H          4.4665788851       -2.6368606168        1.5455226205
 H          4.4306900982       -1.2266098838        2.5855494580
 O          2.5292672580       -0.9558902935        1.1640530089
 C          1.4045526477       -0.4557193572        0.5210254577
 O          0.3549034938       -0.5922171775        1.1733841296
 O          3.0541041164        0.8176601749       -2.4315360026
 C          0.3981867872        0.7105758093       -1.4892792502
 C         -0.4230890055        1.5694669893       -0.5631644812
 C          0.1408378656        2.7351400845       -0.0506769328
 C         -0.5664324187        3.5342937111        0.8258675279
 C         -1.8521098988        3.1906464935        1.2058341581
 C         -2.4214989188        2.0266984682        0.7039617548
 C         -1.7087102181        1.2272162793       -0.1788630121
 H         -2.1598999996        0.3229611319       -0.5495500287
 N         -3.7007489109        1.6307174689        1.1071827073
 S         -4.6885501900        0.6924594387        0.1535690348
 O         -4.6118672042        1.0755093439       -1.2380754429
 O         -5.9968177110        0.8157216519        0.7625089914
 C         -4.1138008458       -0.9813994049        0.3554595176
 C         -4.3765990506       -1.8816232850       -0.6586153141
 C         -3.9779407226       -3.2000610958       -0.5076831443
 C         -3.3233794829       -3.5932142450        0.6493687833
 C         -3.0671095269       -2.6772005301        1.6573851892
 C         -3.4689242435       -1.3587169975        1.5155609585
 H         -3.2691582021       -0.6254616057        2.2787287845
 H         -2.5480712269       -2.9814312680        2.5519408900
 H         -3.0071261493       -4.6181231282        0.7636479125
 H         -4.1740540146       -3.9134975079       -1.2924103090
 H         -4.8744266012       -1.5297887035       -1.5484533437
 H         -4.2041700820        2.2707219209        1.7013594256
 H         -2.4061377558        3.8113019023        1.8935417984
 H         -0.1162464679        4.4344923288        1.2168032057
 H          1.1478666961        3.0005813341       -0.3433458681
 H          0.8576395282        1.3696143365       -2.2450447219
 C         -0.4323512353       -0.3094203789       -2.2528037418
 C          0.2081823871       -1.5237853690       -2.8537656237
 C         -0.7465864083       -1.6696626753       -1.7087957547
 H         -1.7260045561       -2.0810261771       -1.9055059612
 H         -0.3581306324       -1.9250304148       -0.7357727405
 H         -0.1098916828       -1.8405146817       -3.8355625236
 H          1.2608993913       -1.6754355116       -2.6642840330
 H         -1.2119347047        0.1671851559       -2.8409015351
