  62
        -98.94372107
 C         -1.5026028008       -1.5877345000       -0.0987361711
 C         -1.3773164203       -0.2668643702        0.4006707193
 C         -2.6369086800        0.3873037902        0.7951306896
 C         -3.7932811203       -0.2939082793        0.7154880195
 C         -5.1475807800        0.2702047811        1.0317943599
 C         -5.8027297299        0.8744007817       -0.2181356399
 C         -4.8920417496        1.8270961016       -0.9927162997
 H         -4.0575400399        1.2604620514       -1.4121786600
 H         -5.4696705196        2.2168133520       -1.8338119496
 C         -4.3444042591        2.9955845711       -0.1616467395
 H         -4.4398052588        3.9139085713       -0.7449493792
 H         -4.9452211589        3.1216013511        0.7397583206
 C         -2.8700297791        2.8638475804        0.2249801803
 H         -2.5392723187        3.8291484702        0.6164784206
 H         -2.2761099693        2.6473752305       -0.6661329898
 C         -2.5473180594        1.8048537200        1.2862602100
 H         -3.1878422292        1.9504645500        2.1584056701
 H         -1.5063763593        1.9457223795        1.5919966099
 H         -6.7085430197        1.4014570020        0.0873096303
 H         -6.0935189003        0.0594471220       -0.8853374601
 H         -5.7779020303       -0.5378927888        1.4069871197
 H         -5.0481565896        1.0290133208        1.8054982601
 O         -3.8647886408       -1.5817672092        0.2899380092
 C         -2.7291176711       -2.2559885595       -0.1281403511
 O         -2.9370062816       -3.4326719193       -0.4870406814
 O         -0.2861001400        0.3441810293        0.5182890993
 C         -0.2922080512       -2.3757153703       -0.5703963214
 C          0.8504661390       -2.1877878411        0.3955966385
 C          0.7150722089       -2.6766002914        1.6925970184
 C          1.7243658091       -2.5074422620        2.6200134083
 C          2.8875690393       -1.8415005724        2.2757335084
 C          3.0333583494       -1.3538557721        0.9827653285
 C          2.0230580292       -1.5366108914        0.0489413085
 H          2.1595103392       -1.1420336712       -0.9432512814
 N          4.2074045896       -0.6897834524        0.6027683185
 S          4.1951716499        0.5215950179       -0.5428260111
 O          4.0306072396       -0.0421151817       -1.8603583613
 O          5.4453622302        1.2201156773       -0.3194461111
 C          2.8423073104        1.6176560683       -0.1602247707
 C          2.6943048707        2.0671085380        1.1355662395
 C          1.6825470411        2.9681559783        1.4190782699
 C          0.8449421612        3.4076775289        0.4070934501
 C          1.0065866308        2.9466179392       -0.8883118801
 C          2.0142092804        2.0420748689       -1.1768532904
 H          2.1682558202        1.6516021391       -2.1702445706
 H          0.3474275909        3.2825398797       -1.6736512199
 H          0.0560365615        4.1089077092        0.6299147804
 H          1.5457812313        3.3207961981        2.4291332100
 H          3.3616106107        1.7129049775        1.9047196393
 H          4.8560899097       -0.4960123229        1.3507524185
 H          3.6752022795       -1.7003449829        3.0001887183
 H          1.6031512291       -2.8892550423        3.6226458882
 H         -0.2011087812       -3.1832017111        1.9657045183
 H         -0.6023017216       -3.4330744402       -0.5273776517
 C          0.0990981487       -2.0949027701       -2.0135964414
 C         -0.9357567612       -1.7511541594       -3.0416865812
 C          0.0552617392       -0.7179286399       -2.6014684710
 H          0.8415026592       -0.4340282500       -3.2865008910
 H         -0.2816622104        0.0855924900       -1.9655927607
 H         -0.8373420715       -2.1743900792       -4.0300748113
 H         -1.9590489112       -1.6566916091       -2.7079052810
 H          0.9100220885       -2.7369934003       -2.3453635417
