  62
        -98.94244391
 C          1.1971016626        1.1501080223        0.2822559384
 C          1.8936888218        0.3593560301        1.2322209507
 C          2.6632025500       -0.7725503778        0.7007107509
 C          2.6280118167       -1.0255630011       -0.6197516305
 C          3.4312133770       -2.0880990583       -1.3116944684
 C          4.7900821868       -1.5406828680       -1.7721687280
 C          5.5543223882       -0.7836916591       -0.6859761880
 H          6.5080085853       -0.4713292988       -1.1169731763
 H          5.0057898884        0.1259354433       -0.4306089829
 C          5.8119427686       -1.5947718548        0.5917067090
 H          5.6850235001       -2.6585346745        0.3875058843
 H          6.8494693911       -1.4458534190        0.8982175969
 C          4.9348380668       -1.1990751021        1.7810585746
 H          4.9930400422       -0.1184856459        1.9356589446
 H          5.3394585138       -1.6782753949        2.6765710322
 C          3.4560494477       -1.5935844246        1.6779371857
 H          3.3758517456       -2.6565941234        1.4427412289
 H          2.9978089809       -1.4217571629        2.6562459821
 H          4.6235061893       -0.8597698461       -2.6101001672
 H          5.3955222972       -2.3757370795       -2.1294056698
 H          2.8768581262       -2.4282019983       -2.1880153675
 H          3.5791518319       -2.9270094322       -0.6341957980
 O          1.8825829229       -0.3004398795       -1.4874523313
 C          1.1368747919        0.7954244536       -1.0671698574
 O          0.4889467374        1.3346582418       -1.9805801337
 O          1.8725482326        0.5912301494        2.4711568391
 C          0.4283600055        2.3510046556        0.8064653263
 C         -1.0070828188        2.2700957862        0.3588224308
 C         -1.5360818552        3.0566993294       -0.6555593950
 C         -2.8494593499        2.8887926132       -1.0591374651
 C         -3.6645571428        1.9495230025       -0.4528574355
 C         -3.1469532514        1.1668646129        0.5702933142
 C         -1.8274886016        1.3257222935        0.9641103205
 H         -1.4206369975        0.7026739380        1.7514780873
 N         -3.9785361716        0.2077906102        1.1966128067
 S         -4.3599311583       -1.1320867681        0.2684504466
 O         -5.0603245953       -0.6967376509       -0.9111643232
 O         -5.0746816220       -2.0274686248        1.1492535615
 C         -2.7846476745       -1.8441552167       -0.1700368195
 C         -2.2445878499       -2.8165918547        0.6482988499
 C         -0.9942902281       -3.3291218516        0.3445082093
 C         -0.3085999427       -2.8593939484       -0.7652446474
 C         -0.8630535961       -1.8805766703       -1.5752108756
 C         -2.1108878219       -1.3596573149       -1.2726603457
 H         -2.5645615531       -0.5910741952       -1.8774979828
 H         -0.3239050830       -1.5038668638       -2.4300005522
 H          0.6660273795       -3.2570022837       -1.0004858093
 H         -0.5568541671       -4.0894356155        0.9714501395
 H         -2.8171501744       -3.1608339620        1.4948068327
 H         -3.6121992272       -0.1089854889        2.0842177813
 H         -4.6843436064        1.7964196916       -0.7664584995
 H         -3.2441019388        3.4972997992       -1.8586470774
 H         -0.9077948358        3.7802335563       -1.1484605306
 H          0.4477541980        2.2246791752        1.9014889592
 C          1.0735208824        3.6983890264        0.5205125071
 C          2.5646836555        3.8472416674        0.5586835540
 C          1.8285989011        4.0051577231       -0.7362052526
 H          1.7368744780        4.9977530198       -1.1528089579
 H          1.9152439366        3.2293084415       -1.4796887123
 H          2.9865550364        4.7243375028        1.0258078000
 H          3.1477561576        2.9495953133        0.7069682231
 H          0.4973895919        4.5136686046        0.9479701513
