  62
        -98.94368803
 C         -1.7674569939       -0.4134994978       -0.3105381424
 C         -2.9598158686       -0.8124799617       -0.9593219649
 C         -4.1944125779       -0.6732835589       -0.1757426877
 C         -4.1230878370       -0.2107589988        1.0861119026
 C         -5.3061952636        0.0293686313        1.9777809604
 C         -5.8270790805        1.4663389636        1.8344460655
 C         -6.0329703169        1.9068958869        0.3851781565
 H         -5.0630099093        1.9511732702       -0.1152259287
 H         -6.4298073012        2.9241440032        0.4075765037
 C         -6.9783450796        1.0074185392       -0.4232687940
 H         -7.6649500286        1.6400675531       -0.9897690219
 H         -7.5813060874        0.4003245584        0.2529964221
 C         -6.2774926265        0.0962257961       -1.4326711387
 H         -5.6010501308        0.6890013668       -2.0536099948
 H         -7.0383748881       -0.3292470709       -2.0925233921
 C         -5.4835831665       -1.0731767873       -0.8367224884
 H         -5.2044374515       -1.7382674866       -1.6593652105
 H         -6.1159536858       -1.6320253285       -0.1437452625
 H         -5.1065504291        2.1433234347        2.2989297252
 H         -6.7697022052        1.5475225515        2.3787785521
 H         -4.9963484152       -0.1340038959        3.0112886986
 H         -6.0929913137       -0.6798956968        1.7283613314
 O         -2.9558062654        0.1392835135        1.6837077351
 C         -1.7496699362        0.0555951695        1.0031593794
 O         -0.7595685653        0.4184060452        1.6645053069
 O         -2.9890657461       -1.2685546269       -2.1346649713
 C         -0.4522626577       -0.5148409258       -1.0610092552
 C          0.5000329347       -1.4221845963       -0.3228210296
 C          0.0499060985       -2.6704430805        0.1012091047
 C          0.8860793467       -3.5251779011        0.7913837720
 C          2.1927151241       -3.1594264002        1.0652216154
 C          2.6556780023       -1.9214815187        0.6382684227
 C          1.8106445495       -1.0634037117       -0.0535495973
 H          2.1891149660       -0.1103234848       -0.3806661803
 N          3.9635571285       -1.5110510264        0.9250716968
 S          4.8213587304       -0.5467969069       -0.1324589937
 O          4.5580245219       -0.8952876693       -1.5092864433
 O          6.1976925268       -0.6773381734        0.2972274631
 C          4.2672962772        1.1129848671        0.1967708476
 C          3.9602725377        1.4810842783        1.4913358349
 C          3.5573573483        2.7837328993        1.7378853291
 C          3.4758732221        3.6931654868        0.6945162540
 C          3.7951076829        3.3100657821       -0.5988903377
 C          4.1957388931        2.0078304153       -0.8526757472
 H          4.4431649579        1.6631310030       -1.8443955213
 H          3.7305814978        4.0191284852       -1.4090635930
 H          3.1594527382        4.7056557396        0.8901899776
 H          3.3031877214        3.0835945899        2.7418381008
 H          4.0254828415        0.7494905794        2.2791864749
 H          4.5454512759       -2.1945543771        1.3857222764
 H          2.8461576113       -3.8247573663        1.6086968326
 H          0.5206280217       -4.4873274026        1.1179045555
 H         -0.9704366489       -2.9582253188       -0.1134184321
 H         -0.6987460040       -0.9898712656       -2.0226537065
 C          0.1070064273        0.8665542807       -1.3294835722
 C          0.9908506027        1.1075502220       -2.5153311121
 C         -0.4091559927        1.6413621329       -2.5033993489
 H         -0.5545276905        2.7055792496       -2.3954432414
 H         -1.1470571041        1.1604663227       -3.1289983146
 H          1.8068885095        1.8064938350       -2.4127394295
 H          1.2134260837        0.2652926685       -3.1531741551
 H          0.3135223219        1.4164188368       -0.4176596682
