  62
        -98.94144991
 C          2.4337800974        1.0476356592       -0.5500629255
 C          3.4655065311        0.5394413950        0.2837949148
 C          3.9687846366       -0.7981629216       -0.0404614228
 C          3.4569187992       -1.4636176021       -1.0912888951
 C          3.8718291215       -2.8302050324       -1.5640523719
 C          3.1888057103       -3.9811225973       -0.8125271116
 C          3.6804502611       -4.2053947560        0.6180704084
 H          3.2848258441       -5.1690480509        0.9448626474
 H          4.7682457203       -4.2814037219        0.6200005379
 C          3.2360303611       -3.1276749605        1.6171510308
 H          2.4002362451       -2.5615165808        1.1971873097
 H          2.8663617790       -3.6053560971        2.5275639445
 C          4.3388307423       -2.1535817681        2.0331282617
 H          5.1145119220       -2.6924370420        2.5816857177
 H          3.9017920880       -1.4121199625        2.7069501874
 C          4.9962172154       -1.4051301301        0.8663238301
 H          5.5988396457       -0.5916441982        1.2774388411
 H          5.6472529222       -2.0768067874        0.3073719257
 H          3.3685730206       -4.8952084963       -1.3832069764
 H          2.1106468756       -3.8018597853       -0.8023433271
 H          4.9543123126       -2.9330881253       -1.4837187116
 H          3.5921976699       -2.8930932488       -2.6178434983
 O          2.4839545706       -0.9381375031       -1.8787559525
 C          1.9275219509        0.3061598673       -1.6175214789
 O          1.0189602597        0.6134254938       -2.4167783422
 O          3.9492890330        1.1835313436        1.2523115704
 C          1.8829602615        2.4178757918       -0.1863536288
 C          0.6109253593        2.2576788412        0.6120183329
 C          0.5677781692        2.5833050478        1.9625337528
 C         -0.5865370017        2.3834196098        2.7000671256
 C         -1.7186613045        1.8509933850        2.1092828489
 C         -1.6811011337        1.5149281914        0.7626859068
 C         -0.5290970491        1.7300372784        0.0219738879
 H         -0.5032399206        1.4481313668       -1.0205214657
 N         -2.8268622816        0.9472841647        0.1496144665
 S         -3.1797834655       -0.6302167472        0.6515485708
 O         -3.3131614274       -0.6357154435        2.0857603785
 O         -2.2178252548       -1.5616564844        0.0974042773
 C         -4.7736010234       -0.8659839942       -0.1084678988
 C         -4.8576972751       -1.5117836668       -1.3264896702
 C         -6.0996860639       -1.6536441022       -1.9255760630
 C         -7.2288331412       -1.1459141098       -1.3011747051
 C         -7.1278530143       -0.4993321462       -0.0782243958
 C         -5.8894051809       -0.3551506332        0.5260921676
 H         -5.7628507228        0.1328069801        1.4780875857
 H         -8.0085254404       -0.1075671978        0.4045219337
 H         -8.1935756449       -1.2570174293       -1.7704187604
 H         -6.1803340482       -2.1576696451       -2.8753072550
 H         -3.9543029788       -1.8972489777       -1.7722596050
 H         -2.7039805663        0.9139667368       -0.8558510845
 H         -2.6146424583        1.6672132969        2.6783310691
 H         -0.6035385553        2.6404485663        3.7484314428
 H          1.4554084543        2.9751998827        2.4379278030
 H          2.6384249085        2.8626989849        0.4752361572
 C          1.6875402414        3.3350389371       -1.3764691739
 C          1.6104564120        4.8135708679       -1.1459111580
 C          2.8148616428        4.2203823297       -1.8116722709
 H          2.9580316252        4.3873058278       -2.8686523806
 H          3.7359612875        4.1694956650       -1.2495986245
 H          0.9243060376        5.3924036080       -1.7446124869
 H          1.7152777679        5.1662827779       -0.1311328379
 H          1.0636802088        2.9118824683       -2.1525412489
