  62
        -98.93111299
 C         -1.1788577578       -0.7327314020        0.8690840513
 C         -2.1072544210       -0.7682069402       -0.1976137655
 C         -2.8452262157        0.4812870736       -0.4680133819
 C         -2.5731426637        1.5853004990        0.2501258445
 C         -3.1124495026        2.9973757129        0.1517533062
 C         -4.3938567816        3.2932456551       -0.6235313075
 C         -5.6615797100        2.6887291952       -0.0215677932
 H         -5.8728292046        3.1941860127        0.9240608943
 H         -6.4913043256        2.8938447411       -0.7014967285
 C         -5.6071543032        1.1888500910        0.2577394285
 H         -4.8565085446        0.9857223370        1.0241914411
 H         -6.5757152917        0.8905177642        0.6678719299
 C         -5.3254034518        0.3068518351       -0.9573121790
 H         -5.4850635030       -0.7309018763       -0.6533093993
 H         -6.0382428464        0.5364534229       -1.7515168056
 C         -3.9009636504        0.4039487055       -1.5329498786
 H         -3.6992807080       -0.5120406802       -2.0961355184
 H         -3.8064408758        1.2372446375       -2.2257822236
 H         -4.2836743564        2.9910291909       -1.6608733785
 H         -4.5126326646        4.3803323394       -0.6221316325
 H         -3.2313351169        3.3429065156        1.1838369138
 H         -2.2993912418        3.5914832500       -0.2816725297
 O         -1.6303121007        1.5839484796        1.2373275898
 C         -0.9149671792        0.4473032954        1.5616988075
 O         -0.0854484510        0.6132435106        2.4806810933
 H          1.5820430920       -0.5034369193        0.2934776933
 C          1.4179131820       -1.3409189575       -0.3679382043
 C          0.4543422406       -2.2882708112       -0.0252815737
 C          0.2556775681       -3.3531387661       -0.8930408557
 C          0.9876519353       -3.4466720742       -2.0663427924
 C          1.9023069637       -2.4747864401       -2.4218815778
 C          2.1098884300       -1.3998843414       -1.5634999943
 N          3.0187026138       -0.3815053281       -1.8841306644
 S          2.7537360243        1.1973949597       -1.3896191334
 O          1.3480382247        1.4993263536       -1.2487766874
 O          3.4801801533        1.9939536878       -2.3582191719
 C          3.6088427777        1.2927361029        0.1686623079
 C          2.9299573136        1.5799070388        1.3346544511
 C          3.6395252760        1.6399978270        2.5247655476
 C          5.0074348549        1.4189650461        2.5274418148
 C          5.6768120831        1.1372364954        1.3453442865
 C          4.9733561286        1.0729402930        0.1544753307
 H          5.4543652600        0.8646419426       -0.7865262728
 H          6.7412117567        0.9664729219        1.3504172764
 H          5.5529767574        1.4668855834        3.4566928603
 H          3.1080066029        1.8518397250        3.4387983862
 H          1.8615329218        1.7343104081        1.3117884521
 H          3.4014088994       -0.4289500612       -2.8168695985
 H          2.4413689739       -2.5357404382       -3.3549600870
 H          0.8169543007       -4.2818034930       -2.7290450317
 H         -0.4886833328       -4.1016753542       -0.6925393281
 C         -0.3247939139       -1.9478101525        1.2226779842
 H          0.4097891725       -1.5678359955        1.9511293883
 C         -1.1367050188       -2.9862323590        1.9797196081
 C         -2.1171936203       -3.9470371782        1.3821099476
 C         -0.8416564504       -4.4562209692        1.9847813950
 H         -0.9019321448       -4.9788550463        2.9280166175
 H         -0.0646242931       -4.8216581556        1.3333461233
 H         -3.0378168951       -4.1146361523        1.9234229479
 H         -2.2510707387       -3.9386313393        0.3133682475
 H         -1.4360947107       -2.5637976636        2.9370525637
 O         -2.3190371430       -1.7834162619       -0.9075981716
