  62
        -98.93827018
 C         -2.1938274040       -1.0022686212        0.5715686336
 C         -2.3948573285       -0.2010410838       -0.5771731373
 C         -3.1935075573        1.0230408086       -0.3850187932
 C         -3.6379409167        1.3377841963        0.8434104265
 C         -4.4280488806        2.5479857857        1.2753034887
 C         -5.5850465995        2.9982621401        0.3725255043
 C         -6.3134470469        1.8654813542       -0.3653788574
 H         -6.0103962532        0.8987423068        0.0401568788
 H         -7.3872849036        1.9671521004       -0.1981635579
 C         -6.0700427558        1.8841648251       -1.8764320580
 H         -6.8693186706        1.3240979228       -2.3675488354
 H         -6.1306436965        2.9164313686       -2.2279712723
 C         -4.7448819820        1.2769618266       -2.3357978461
 H         -4.7654206355        0.1929189155       -2.1953041286
 H         -4.6445422442        1.4590284772       -3.4084186674
 C         -3.4901273437        1.8129785310       -1.6269645303
 H         -2.6345942600        1.6604374327       -2.2910679167
 H         -3.5784026658        2.8763765622       -1.4172644283
 H         -5.2177007854        3.7183636666       -0.3573759494
 H         -6.2921873767        3.5311575304        1.0104474720
 H         -4.8138514455        2.2956179678        2.2660352486
 H         -3.7300806411        3.3806446847        1.4046379590
 O         -3.3745528606        0.5608666224        1.9333553624
 C         -2.6573943955       -0.6184125864        1.8279102332
 O         -2.4942550070       -1.2199824834        2.9099720005
 H          0.2259737086       -0.5391182055        1.5875205910
 C          0.7119246887       -1.0301823553        0.7522096525
 C          0.0095151052       -1.9937944800        0.0381015831
 C          0.6411809006       -2.6172552581       -1.0289519779
 C          1.9359533593       -2.2692842171       -1.3750359573
 C          2.6293595583       -1.3077243786       -0.6638545777
 C          2.0087271429       -0.6818632276        0.4098882288
 N          2.7108811325        0.2839891027        1.1541772442
 S          3.4355427535        1.5482846379        0.3169523566
 O          3.5279308870        2.6290231929        1.2750948379
 O          2.7403221645        1.8397260031       -0.9153871011
 C          5.0728125558        0.9396825152       -0.0291612925
 C          5.5337053027        0.9031652455       -1.3305663110
 C          6.8134734000        0.4292054582       -1.5747611075
 C          7.6050349877        0.0036281026       -0.5190318099
 C          7.1280246665        0.0495726773        0.7826389361
 C          5.8502546517        0.5231851072        1.0338032806
 H          5.4427727799        0.5789115668        2.0294261972
 H          7.7462730512       -0.2825785475        1.6009783645
 H          8.5995104440       -0.3665991682       -0.7118971858
 H          7.1859988168        0.3933916413       -2.5858876959
 H          4.8797286312        1.2393760856       -2.1195048641
 H          2.1873969672        0.6417423286        1.9404792013
 H          3.6359348535       -1.0329329103       -0.9333511378
 H          2.4124031344       -2.7557313857       -2.2124258063
 H          0.1170904021       -3.3670926159       -1.5978715583
 C         -1.4050656935       -2.2964012278        0.4712192895
 H         -1.3649076523       -2.7048870407        1.4917221589
 C         -2.1212490119       -3.2858197226       -0.4230082358
 C         -1.9240094905       -4.7576630873       -0.2241290035
 C         -3.2240809020       -4.1174691966        0.1571339349
 H         -4.0955809870       -4.3137908857       -0.4492477587
 H         -3.4444158702       -3.9868983407        1.2069802384
 H         -1.9055418137       -5.3979417001       -1.0929674716
 H         -1.2623029860       -5.0700750165        0.5694060168
 H         -2.2529288373       -2.9158321057       -1.4330367016
 O         -1.9291294227       -0.4860315868       -1.7103667913
