  62
        -98.94401726
 C          1.8347500758        1.1193839456        0.2090095883
 C          2.2034761099        0.1027708395       -0.7045836927
 C          3.6405915919       -0.0028089894       -0.9890382962
 C          4.5020790835        0.8608396530       -0.4213447400
 C          5.9915372401        0.8938301081       -0.6326340088
 C          6.7694730346       -0.0817996603        0.2610918652
 C          6.6317747135       -1.5580955498       -0.1132779910
 H          6.8587358893       -1.6861990568       -1.1720852835
 H          7.3907470699       -2.1037886523        0.4508656310
 C          5.2559870219       -2.1647585594        0.1967085175
 H          4.7222735301       -1.5198250868        0.8985640381
 H          5.3860874959       -3.1319655943        0.6873323420
 C          4.3730549712       -2.3952519748       -1.0299997404
 H          4.8335242032       -3.1445867545       -1.6778834271
 H          3.4104213127       -2.7881392337       -0.6917232104
 C          4.1018376607       -1.1327691725       -1.8588321932
 H          4.9942868253       -0.8483790545       -2.4160281908
 H          3.3004596994       -1.3543285265       -2.5681966094
 H          6.4506980065        0.0626822918        1.2959126431
 H          7.8256641793        0.1897454136        0.1976357670
 H          6.2178997292        0.6901029310       -1.6794954214
 H          6.3162480416        1.9096446722       -0.3973099137
 O          4.1009320649        1.8464453760        0.4251845190
 C          2.7683285364        1.9837665233        0.7801659136
 O          2.5453708414        2.8983011618        1.5991678183
 H         -2.0258748318        0.0882154949       -0.0160026413
 C         -1.4393218654       -0.4700125546        0.6939225085
 C         -0.1967342288       -0.0039323918        1.0949352658
 C          0.5316365795       -0.7535088634        2.0152527205
 C          0.0441660187       -1.9542543318        2.4918268270
 C         -1.1841001964       -2.4299953749        2.0679929410
 C         -1.9301357033       -1.6801224053        1.1667186455
 N         -3.2011234920       -2.1139636788        0.7742611887
 S         -3.9214377654       -1.6626607395       -0.6598728381
 O         -5.0374000506       -2.5767059816       -0.7912268682
 O         -2.9964627088       -1.6388390273       -1.7678328197
 C         -4.5560942643       -0.0274577557       -0.3488465541
 C         -5.0231600063        0.2930911077        0.9103921693
 C         -5.5544615843        1.5547543291        1.1256467384
 C         -5.6193955858        2.4670221208        0.0836574178
 C         -5.1526010466        2.1278502529       -1.1767107107
 C         -4.6146555245        0.8693365334       -1.3971571089
 H         -4.2278145830        0.5683895086       -2.3581851230
 H         -5.2039178517        2.8378051522       -1.9870527832
 H         -6.0338928002        3.4480754599        0.2536338208
 H         -5.9170592744        1.8223515469        2.1050580783
 H         -4.9579661917       -0.4376892765        1.6988798347
 H         -3.4566994378       -3.0460158616        1.0627252583
 H         -1.5619606710       -3.3735426396        2.4309498394
 H          0.6272040739       -2.5300714871        3.1949968844
 H          1.4954191910       -0.3858787186        2.3414618217
 C          0.3774435892        1.2981281467        0.5928899101
 H          0.3679623993        2.0202729863        1.4229180527
 C         -0.3952728293        1.8873089321       -0.5694443810
 C         -1.5694254822        2.7839152754       -0.3183883468
 C         -0.2854775306        3.3575345186       -0.8358402641
 H         -0.2439205492        3.6941825720       -1.8608192382
 H          0.3293896899        3.9353739423       -0.1610728498
 H         -2.4134642509        2.7264401740       -0.9888473455
 H         -1.8361857374        2.9823142865        0.7085432240
 H         -0.4302587560        1.2222835406       -1.4259458320
 O          1.3810458383       -0.6767742826       -1.2527720156
