  62
        -98.94316119
 C         -1.8339144331        0.0668455895       -0.3047177384
 C         -2.7519902995        0.6637599269        0.5942615998
 C         -4.0283139218       -0.0445996253        0.7659953535
 C         -4.2503302650       -1.2039038907        0.1226081584
 C         -5.4883633359       -2.0530466893        0.2229762138
 C         -6.6280956904       -1.6065171519       -0.7030905406
 C         -7.3389598936       -0.3183707954       -0.2859317128
 H         -8.2446741039       -0.2427234502       -0.8910051623
 H         -7.6497078870       -0.3978947962        0.7562608579
 C         -6.5064996153        0.9564374230       -0.4816961625
 H         -5.6749363276        0.7476996519       -1.1587536621
 H         -7.1217312391        1.7231395896       -0.9580399551
 C         -5.9534793246        1.5569891438        0.8107168244
 H         -6.7796751191        1.8922709918        1.4415458947
 H         -5.3507269670        2.4308676140        0.5514873732
 C         -5.0739694556        0.5998344316        1.6256652178
 H         -4.5598404044        1.1784537251        2.3967285689
 H         -5.6897858976       -0.1581809622        2.1088708869
 H         -7.3650675982       -2.4127569638       -0.7243408650
 H         -6.2313435512       -1.4930399754       -1.7147058655
 H         -5.8404888219       -2.0677885129        1.2548639552
 H         -5.1930309106       -3.0663533915       -0.0580973129
 O         -3.3306496339       -1.7628192229       -0.7089534656
 C         -2.1220718456       -1.1354565307       -0.9577475474
 O         -1.3956985797       -1.7395552113       -1.7739479040
 O         -2.5435962666        1.7294002567        1.2296496128
 C         -0.4747841996        0.6748185981       -0.6215062935
 C          0.5013920189        0.3660299446        0.4887272939
 C          0.4327186385        1.0009087798        1.7250714703
 C          1.3218247778        0.6713970634        2.7310283596
 C          2.3049031998       -0.2799399421        2.5219480081
 C          2.3803314358       -0.9227147941        1.2926516043
 C          1.4796363943       -0.5981510686        0.2872252710
 H          1.5363942812       -1.1230061581       -0.6550767261
 N          3.3664299489       -1.8975388380        1.0512760773
 S          4.3143842403       -1.7472562530       -0.3201146204
 O          3.5493815517       -2.0666688175       -1.4975482758
 O          5.4685719756       -2.5794160401       -0.0601937547
 C          4.7866593848       -0.0278075600       -0.3283518487
 C          4.0741164859        0.8719371942       -1.0942275098
 C          4.3982479695        2.2174883107       -1.0212450923
 C          5.4229387694        2.6368033449       -0.1872594368
 C          6.1342984991        1.7195982175        0.5715006290
 C          5.8112713473        0.3742079054        0.5064239474
 H          6.3438286439       -0.3724571734        1.0729859353
 H          6.9342191442        2.0490489129        1.2147587543
 H          5.6692335677        3.6852884653       -0.1313014505
 H          3.8466013504        2.9315873123       -1.6115864616
 H          3.2879655819        0.5029498335       -1.7329651486
 H          3.9468903940       -2.0973072617        1.8537257659
 H          3.0010827079       -0.5338898747        3.3069822011
 H          1.2527413625        1.1654820624        3.6881669109
 H         -0.3434718624        1.7287267263        1.9000672349
 H         -0.1250671280        0.1545013421       -1.5238003638
 C         -0.5500624114        2.1581941743       -0.9232357610
 C          0.5253779571        2.7863453077       -1.7547316087
 C         -0.8492789651        2.6010422203       -2.3224795977
 H         -1.4737665885        3.4701011748       -2.4655193229
 H         -0.9940553500        1.8334071248       -3.0696432317
 H          0.8487579173        3.7857684117       -1.5084221836
 H          1.3100831747        2.1424584306       -2.1221992012
 H         -0.9765305152        2.7438436815       -0.1205364726
