  62
        -98.94218509
 C         -2.2196886673       -0.1573710494        0.6561014658
 C         -2.5050432574        0.5466682521       -0.5388200605
 C         -2.3484066958        2.0050458129       -0.4697376969
 C         -1.9594138662        2.5828611688        0.6813193593
 C         -1.7529658747        4.0564580992        0.9059743800
 C         -0.3689264253        4.5584663548        0.4719991775
 C         -0.1512263283        4.6389128268       -1.0401794824
 H         -0.9628413404        5.2116003092       -1.4898441006
 H          0.7705275446        5.2012401177       -1.2031233721
 C         -0.0316616299        3.2779282265       -1.7416464107
 H          0.1645975896        2.4995701377       -1.0011015870
 H          0.8181177286        3.2921573160       -2.4277398536
 C         -1.2620084610        2.8715806302       -2.5521996862
 H         -1.0767650741        1.8840392515       -2.9828209297
 H         -1.4131111207        3.5756029140       -3.3733453300
 C         -2.5544019472        2.7926542063       -1.7287833921
 H         -2.9165087453        3.7939968352       -1.4971254125
 H         -3.3099574192        2.2748495071       -2.3244146522
 H          0.3870457759        3.9111310188        0.9228003997
 H         -0.2395624310        5.5597366762        0.8891166884
 H         -1.8602817278        4.2258455952        1.9794628803
 H         -2.5279745748        4.6196815618        0.3858198572
 O         -1.7108643769        1.8698978202        1.8134922123
 C         -1.8196308820        0.4881971545        1.8255756556
 O         -1.5405367628       -0.0394208665        2.9221113338
 O         -2.8715264812       -0.0075924400       -1.6070394629
 C         -2.3118834877       -1.6723925615        0.6794129379
 C         -1.3651935348       -2.2480681400       -0.3468658132
 C         -1.7559079097       -3.1383799102       -1.3366948763
 C         -0.8306855159       -3.6161545519       -2.2488933964
 C          0.4953471240       -3.2362394647       -2.1762479449
 C          0.9023811466       -2.3518074164       -1.1807864920
 C         -0.0312371450       -1.8573414959       -0.2851455006
 H          0.2776930154       -1.1789281818        0.4978548345
 N          2.2466738581       -1.9473474514       -1.1125893523
 S          3.1206961204       -1.8160407833        0.3107682426
 O          4.3026668167       -2.6366856902        0.1393962891
 O          2.3018909051       -2.1120118066        1.4600714513
 C          3.6264009564       -0.1069733816        0.3382624072
 C          4.9441734430        0.1894006612        0.6280244588
 C          5.3448919574        1.5154485849        0.6678341982
 C          4.4243518277        2.5200873605        0.4146508533
 C          3.1056843988        2.2073995298        0.1215094600
 C          2.6981030996        0.8830504982        0.0855471830
 H          1.6779217837        0.6098119308       -0.1386842579
 H          2.3930482969        2.9903652346       -0.0828884926
 H          4.7326106806        3.5531447450        0.4431847068
 H          6.3703809924        1.7591198735        0.8941602080
 H          5.6265655277       -0.6251557898        0.8082389682
 H          2.8289906323       -2.3649438777       -1.8243384933
 H          1.2165755879       -3.6153081501       -2.8847605155
 H         -1.1464653572       -4.3000674670       -3.0221268974
 H         -2.7843356303       -3.4523876038       -1.4015504284
 H         -1.9578440805       -1.9848405870        1.6732914025
 C         -3.7486193548       -2.1191320148        0.5102205192
 C         -4.1918687595       -3.4423198906        1.0558013998
 C         -4.6352783998       -2.1724636534        1.7163587658
 H         -5.6660946296       -1.8684564269        1.6130330176
 H         -4.1951169963       -1.9066031543        2.6668293986
 H         -4.9223022962       -4.0120381314        0.5014809591
 H         -3.4533253914       -4.0454573541        1.5624379917
 H         -4.1881682226       -1.7719382704       -0.4176331492
