  62
        -98.93351229
 C         -2.1216253302       -0.4360444496        0.4407860905
 C         -3.1938701901       -0.7030798001       -0.4415148494
 C         -4.1966204999        0.3692581499       -0.6199298505
 C         -4.0261299698        1.5379266104        0.0236898085
 C         -4.9263155596        2.7445695305        0.0225344974
 C         -6.1726790098        2.5523142815        0.9027940674
 C         -6.8533541100        1.1926032215        0.7668027784
 H         -6.1317839501        0.4067688015        0.9976288592
 H         -7.6423210401        1.1396685722        1.5217251384
 C         -7.4890081298        0.9159806204       -0.5934604914
 H         -8.2447399097        1.6780286303       -0.7966395422
 H         -7.9996695800       -0.0477700595       -0.5228309707
 C         -6.5271289597        0.8580850992       -1.7816559712
 H         -7.0773329596        0.4289056286       -2.6242015610
 H         -6.2231730595        1.8552317889       -2.0881127221
 C         -5.3025372098       -0.0265404308       -1.5693580403
 H         -5.6317630300       -1.0209865205       -1.2478072995
 H         -4.8151289297       -0.1845330517       -2.5389672801
 H         -6.8856456596        3.3447818614        0.6693202166
 H         -5.8684416599        2.6683036223        1.9459402773
 H         -4.3396102395        3.5728716308        0.4259933467
 H         -5.2046669994        3.0013440297       -0.9951888129
 O         -2.9620745099        1.7621393009        0.8484023385
 C         -2.0048689401        0.7987121410        1.0852310995
 O         -1.1122962301        1.1499756015        1.8854851493
 H          1.5495180097       -0.6652190497        0.9190436312
 C          1.3071477198       -1.0493105505       -0.0607746885
 C          0.0172565098       -1.4824949706       -0.3340800683
 C         -0.2767652801       -1.9536333216       -1.6095337379
 C          0.7021333100       -1.9807889626       -2.5855057678
 C          1.9860413800       -1.5443911026       -2.3113832980
 C          2.2923562899       -1.0781747815       -1.0378918683
 N          3.6045674300       -0.6804505215       -0.7262045285
 S          3.8612565900        0.5818319694        0.3638816205
 O          3.6428939897        0.0943208906        1.7021854309
 O          3.1054609602        1.7483317192       -0.0363563506
 C          5.6054197101        0.8514912990        0.1068110305
 C          6.0268774204        1.8877297782       -0.7044267103
 C          7.3856317104        2.0630634478       -0.9164491803
 C          8.2942656502        1.2018988782       -0.3200552694
 C          7.8561223099        0.1666018689        0.4925402014
 C          6.4995107599       -0.0130029507        0.7100819614
 H          6.1120986696       -0.7964567801        1.3401338820
 H          8.5654698797       -0.4992569908        0.9568841621
 H          9.3507590002        1.3401373779       -0.4872338694
 H          7.7293428506        2.8692564572       -1.5443111609
 H          5.2843451605        2.5367289279       -1.1404686110
 H          4.1779644901       -0.5632083222       -1.5511863985
 H          2.7480396202       -1.5669675233       -3.0757627978
 H          0.4614968901       -2.3426023434       -3.5738387175
 H         -1.2816534401       -2.2780847116       -1.8303800778
 C         -1.0264960404       -1.4426257095        0.7570549215
 H         -0.5358163705       -1.0633693088        1.6645890713
 C         -1.5583721706       -2.8330787491        1.0482890226
 C         -0.7010422209       -3.7832874886        1.8262517736
 C         -1.9287408409       -3.1949931479        2.4533102329
 H         -2.7851512110       -3.8328732976        2.6123394733
 H         -1.8003331809       -2.4382722572        3.2142863023
 H          0.2608321791       -3.4250071185        2.1625578634
 H         -0.7124519810       -4.8276558188        1.5551243645
 H         -2.1694455006       -3.2366413597        0.2523650929
 O         -3.3461715902       -1.7872736007       -1.0646294785
