  62
        -98.94175698
 C         -2.2448801105       -1.1807496403        0.3525329416
 C         -1.9948350765       -0.2811499339       -0.7140840849
 C         -2.6353300053        1.0397335279       -0.5998608944
 C         -3.3368248471        1.3450600660        0.5057900421
 C         -3.9662927976        2.6787914788        0.7828007781
 C         -2.9936932224        3.6073500371        1.5242660096
 C         -1.6078622912        3.6944118885        0.8836137019
 H         -1.0232921783        4.4024191562        1.4752271116
 H         -1.1143388989        2.7228193119        0.9638733236
 C         -1.6168596471        4.1357655927       -0.5865066420
 H         -0.8396932473        4.8884578707       -0.7329329021
 H         -2.5707441257        4.6079039316       -0.8244242365
 C         -1.3445255187        3.0095634263       -1.5848490643
 H         -1.1635076486        3.4596536049       -2.5641450363
 H         -0.4388141748        2.4712849556       -1.2960809786
 C         -2.4716495986        1.9849313383       -1.7569294880
 H         -3.4120626457        2.4990577309       -1.9664396727
 H         -2.2195974454        1.3613833017       -2.6195874883
 H         -3.4377122287        4.6034355631        1.5712083248
 H         -2.8769322256        3.2401989600        2.5467880634
 H         -4.8492494345        2.5213064861        1.4046322455
 H         -4.2730969468        3.1327343644       -0.1575004572
 O         -3.5015387731        0.4778940484        1.5381286284
 C         -2.9662312122       -0.7987720776        1.4863807433
 O         -3.1867946765       -1.4855336398        2.5049772733
 O         -1.2818438158       -0.5497021538       -1.7133137645
 C         -1.6740025388       -2.5890101076        0.3594886515
 C         -0.2098201565       -2.5525507095       -0.0037465384
 C          0.3199460541       -3.1477384001       -1.1401746782
 C          1.6771181190       -3.0696970644       -1.4000380253
 C          2.5321557525       -2.4093383741       -0.5368813576
 C          2.0113702463       -1.8024286969        0.5994009866
 C          0.6498558831       -1.8774946250        0.8544646493
 H          0.2411242030       -1.4049638112        1.7400117394
 N          2.8602120976       -1.1496211830        1.5085369629
 S          4.1120822847       -0.1682329350        1.0026236787
 O          5.1080993005       -0.9664900199        0.3336494785
 O          4.5407914385        0.5186757266        2.1997820266
 C          3.4000141184        1.0013459999       -0.1379244973
 C          2.7724191409        2.1161582224        0.3827288598
 C          2.2070153367        3.0347310446       -0.4855503013
 C          2.2698352312        2.8186440494       -1.8541726046
 C          2.8952760990        1.6905858200       -2.3606407752
 C          3.4685181303        0.7709060988       -1.4966385998
 H          3.9756202202       -0.1095309110       -1.8545982804
 H          2.9382317933        1.5235943815       -3.4247629983
 H          1.8279940992        3.5347713366       -2.5288040232
 H          1.7171194191        3.9118234780       -0.0939481385
 H          2.7558713438        2.2543347867        1.4521298701
 H          2.3801659558       -0.7378247831        2.2945255197
 H          3.5930617392       -2.3611183858       -0.7201231045
 H          2.0771820383       -3.5340518505       -2.2886524995
 H         -0.3325920468       -3.6527061545       -1.8329326346
 H         -1.7461518056       -2.9174449153        1.4097970098
 C         -2.4732119511       -3.5933713524       -0.4570561044
 C         -3.9606200971       -3.4616242522       -0.5890649312
 C         -3.0813681396       -3.2622663155       -1.7851101085
 H         -3.0809972200       -4.0249037559       -2.5502834430
 H         -2.9448950382       -2.2629354682       -2.1655130133
 H         -4.5627423455       -4.3560155549       -0.5323712583
 H         -4.4260781951       -2.5940695189       -0.1435245045
 H         -2.0912662373       -4.6024970436       -0.3346896892
