  62
        -98.94559437
 C         -2.4052786353       -0.8514786990        0.1768492251
 C         -1.9490124617        0.0304733203       -0.8326787601
 C         -2.3734661778        1.4314084104       -0.6947712610
 C         -3.1455983231        1.7881959046        0.3479398642
 C         -3.5946958390        3.1898903227        0.6417527914
 C         -2.5964450200        3.9106458776        1.5590529501
 C         -1.1427459571        3.7990743330        1.0982704182
 H         -0.5334431402        4.3674451974        1.8044942131
 H         -0.8252672396        2.7557351066        1.1678558899
 C         -0.8889411794        4.3100619824       -0.3266887880
 H         -1.7149816652        4.9482839483       -0.6422547476
 H          0.0120538604        4.9265822105       -0.3206367956
 C         -0.6719713784        3.2083060668       -1.3654540023
 H          0.0917282175        2.5121411747       -1.0095284329
 H         -0.2919425430        3.6729397177       -2.2784882883
 C         -1.9157465174        2.3981879384       -1.7502584174
 H         -2.7259792715        3.0738337630       -2.0314265697
 H         -1.6563462832        1.7882714368       -2.6202720171
 H         -2.8808076901        4.9626574038        1.6201712674
 H         -2.6731851489        3.4802689065        2.5604925082
 H         -3.7038088260        3.7349400495       -0.2936838708
 H         -4.5643833384        3.1437091969        1.1402634712
 O         -3.5646674569        0.9108095321        1.2964717451
 C         -3.2012914399       -0.4254662066        1.2389395005
 O         -3.6366217726       -1.1194468635        2.1811091548
 H         -0.2099177893       -0.9435235101        1.5048072234
 C          0.2649388977       -1.6837041695        0.8717395931
 C         -0.5285845103       -2.4896490943        0.0649595835
 C          0.0939367885       -3.4392212269       -0.7351141297
 C          1.4716026167       -3.5724992097       -0.7222076664
 C          2.2572094125       -2.7681231169        0.0820226539
 C          1.6468397108       -1.8081237903        0.8803467681
 N          2.4198625612       -0.9904085087        1.7216162508
 S          3.8384678934       -0.2748860025        1.2049385101
 O          4.8047110305       -1.3006399421        0.9023908672
 O          4.1898392989        0.6432642873        2.2639471037
 C          3.4404311190        0.6382115703       -0.2738299985
 C          3.1256566864        1.9774516065       -0.1545027870
 C          2.8052368378        2.6959328915       -1.2946449202
 C          2.7901251525        2.0620122192       -2.5277094847
 C          3.1029330473        0.7158999369       -2.6301751423
 C          3.4363861638       -0.0056546574       -1.4950338789
 H          3.6986988187       -1.0491378405       -1.5424917872
 H          3.0877145882        0.2242233338       -3.5894115400
 H          2.5332070691        2.6206478499       -3.4137697041
 H          2.5664391190        3.7444954686       -1.2180498241
 H          3.1532080785        2.4327295838        0.8225817919
 H          1.8772722958       -0.3389039223        2.2685426561
 H          3.3297143818       -2.8721336658        0.1102940621
 H          1.9414910502       -4.3179781165       -1.3457365391
 H         -0.4995645375       -4.0773133463       -1.3687383707
 C         -2.0280910939       -2.3196452450        0.1182960580
 H         -2.3852331209       -2.7647162992        1.0592579046
 C         -2.7477329330       -2.9870211219       -1.0368648090
 C         -3.1662450401       -4.4228080429       -0.9447403510
 C         -4.1958182339       -3.3362775758       -0.8769318124
 H         -4.8574481476       -3.1957986486       -1.7184922022
 H         -4.6534748768       -3.1205948068        0.0779564486
 H         -3.1250286340       -5.0310055710       -1.8358719466
 H         -2.9337005982       -4.9555691545       -0.0349559721
 H         -2.4288100597       -2.6051007685       -1.9999054065
 O         -1.2240608327       -0.3304458491       -1.7949966414
