  62
        -98.94515842
 C         -2.2583478589       -0.7532323157       -0.0253608223
 C         -3.2436775177       -0.6570610401        0.9901131005
 C         -4.1065616869        0.5297182319        0.9459674716
 C         -3.8946487299        1.4598712418       -0.0028253849
 C         -4.7253080422        2.6951092418       -0.1932562819
 C         -5.8815322711        2.4422522578       -1.1711036802
 C         -6.6907798621        1.1834345433       -0.8587314032
 H         -7.4961414939        1.1244329268       -1.5940009875
 H         -6.0561035393        0.3066263069       -1.0061208751
 C         -7.2858079586        1.1457766330        0.5558060701
 H         -8.3229413656        0.8103301737        0.4902722935
 H         -7.2965615138        2.1504229462        0.9798932481
 C         -6.5708884837        0.1966786052        1.5193056199
 H         -7.1949235130        0.0827325272        2.4095871001
 H         -6.4753141144       -0.7894636585        1.0581221506
 C         -5.1815862099        0.6452682317        1.9899816088
 H         -5.2350438064        1.6651368196        2.3762615349
 H         -4.8773965541       -0.0160540445        2.8064556199
 H         -5.4677231611        2.3428248637       -2.1773353815
 H         -6.5395776090        3.3130239510       -1.1591819210
 H         -5.1145007025        3.0167890177        0.7708199571
 H         -4.0842278913        3.4809410568       -0.5965619441
 O         -2.9160018695        1.3535402694       -0.9366708406
 C         -2.0794724595        0.2470593508       -0.9809315952
 O         -1.2460865017        0.2833217741       -1.9075008587
 H          0.7788224116       -1.2599749670       -1.5996879383
 C          0.9984312692       -1.1761786906       -0.5472092052
 C          0.0345316988       -1.5190719393        0.3877798275
 C          0.3324335935       -1.3661514816        1.7392290223
 C          1.5653778834       -0.8874862381        2.1399585413
 C          2.5234711697       -0.5403720754        1.2028427655
 C          2.2287079709       -0.6710949913       -0.1469534021
 N          3.1884754371       -0.3070753231       -1.1075009667
 S          3.9713869881        1.1666553036       -0.9244689131
 O          3.1601660088        2.1256054940       -0.2102890788
 O          4.3904938546        1.5417789175       -2.2576507142
 C          5.4154788223        0.7518449794        0.0339851083
 C          5.7078166967        1.4592133230        1.1835650204
 C          6.8419789205        1.1241638156        1.9071318622
 C          7.6600341060        0.0938113859        1.4699952569
 C          7.3541644955       -0.6051871950        0.3117092830
 C          6.2227958130       -0.2744037518       -0.4166559363
 H          5.9512531658       -0.7904476296       -1.3222437293
 H          7.9924675124       -1.4060717510       -0.0250419010
 H          8.5410423336       -0.1658011340        2.0354231364
 H          7.0810840009        1.6671379806        2.8074160947
 H          5.0390548875        2.2485681766        1.4885274853
 H          2.8615853875       -0.4162495378       -2.0571911674
 H          3.4823412278       -0.1538023393        1.5071358372
 H          1.7836740520       -0.7788606417        3.1914840689
 H         -0.4238857660       -1.6141758601        2.4707795626
 C         -1.3468144177       -1.9703310213       -0.0165343145
 H         -1.7391365859       -2.6184960474        0.7784942468
 C         -1.3869306051       -2.7287913584       -1.3263842777
 C         -0.8311953699       -4.1195069375       -1.3828032689
 C         -2.3110402085       -3.8998123920       -1.4655354058
 H         -2.8047997897       -4.0553096054       -2.4131470099
 H         -2.9160244224       -4.1631838035       -0.6103721111
 H         -0.3065460101       -4.4298948269       -2.2733746338
 H         -0.4299883292       -4.5305348021       -0.4689474146
 H         -1.2611166787       -2.0955028432       -2.1961002413
 O         -3.3947862219       -1.5264932060        1.8889479598
