  62
        -98.94310240
 C         -2.5597950466       -0.1771074509        0.5324776654
 C         -2.1990447637        0.3618939080       -0.7280489699
 C         -1.9823835521        1.8167496452       -0.7667867346
 C         -2.0882497373        2.5332986989        0.3655678182
 C         -1.8658615127        4.0138391060        0.4754540252
 C         -0.4105294089        4.3428900552        0.8322259738
 C          0.6211505608        3.6433965616       -0.0532483440
 H          1.6068768020        4.0019187864        0.2535669900
 H          0.6030311815        2.5680667870        0.1430513722
 C          0.4353554545        3.8808572781       -1.5584363384
 H         -0.1896347035        4.7600662901       -1.7231124326
 H          1.4122319082        4.0877669635       -2.0001670926
 C         -0.1502883916        2.6853642475       -2.3127920966
 H          0.0018352018        2.8476406897       -3.3835788249
 H          0.3937154328        1.7805778542       -2.0311408286
 C         -1.6474681139        2.4297455347       -2.0972207298
 H         -2.2073246051        3.3563000682       -2.2462008604
 H         -1.9719142747        1.7053102479       -2.8501218471
 H         -0.2772016843        5.4245641813        0.7629496951
 H         -0.2302452908        4.0423003970        1.8672507419
 H         -2.1345234826        4.4846557472       -0.4683848170
 H         -2.5176820139        4.3985213373        1.2622302640
 O         -2.3911726226        1.9755772883        1.5672785280
 C         -2.6112270021        0.6133626510        1.6818458540
 O         -2.8481494550        0.2315776175        2.8474132225
 O         -2.0815226525       -0.3219123923       -1.7775443425
 C         -2.7712042826       -1.6698838698        0.7311760331
 C         -1.6347287282       -2.4169541105        0.0767955108
 C         -1.7958427299       -3.4448192868       -0.8419007699
 C         -0.6883302750       -4.0468935116       -1.4147556223
 C          0.5913538085       -3.6289202949       -1.1008486227
 C          0.7621736147       -2.6065554577       -0.1736588076
 C         -0.3455478348       -2.0308825665        0.4226625201
 H         -0.2043722836       -1.2351562844        1.1416745361
 N          2.0457994803       -2.1511184573        0.1835793816
 S          2.2092395062       -0.4883855755        0.4507401940
 O          1.8389111088       -0.1994728748        1.8155053611
 O          1.5186955197        0.2546637878       -0.5758144251
 C          3.9734298744       -0.3024290716        0.2682100856
 C          4.4853758018        0.3011056700       -0.8641672581
 C          5.8605578193        0.4147954838       -0.9992682317
 C          6.6947174889       -0.0773727611       -0.0070830437
 C          6.1655904030       -0.6803189562        1.1248207386
 C          4.7921021011       -0.7950181843        1.2673034602
 H          4.3343057175       -1.2455494461        2.1325116704
 H          6.8170498453       -1.0595342236        1.8954653976
 H          7.7641131343        0.0115864619       -0.1149993582
 H          6.2739809852        0.8859051792       -1.8763663665
 H          3.7965950276        0.6720618747       -1.6062263645
 H          2.7629507834       -2.4894101557       -0.4445283648
 H          1.4511495488       -4.0820622042       -1.5707999307
 H         -0.8258862067       -4.8400974888       -2.1340817028
 H         -2.7859894229       -3.7554179652       -1.1323967369
 H         -2.6825784656       -1.8211874951        1.8208073707
 C         -4.1494508849       -2.1778303145        0.3358653270
 C         -5.3343977939       -1.2598071829        0.3178195812
 C         -4.7977754201       -1.8156655004       -0.9651782933
 H         -5.3772301428       -2.5716598430       -1.4748683937
 H         -4.2537595172       -1.1596683932       -1.6253659610
 H         -6.2769065582       -1.6328110194        0.6897785527
 H         -5.1598111544       -0.2160764689        0.5370268959
 H         -4.3302470844       -3.1820479375        0.7072643608
