  62
        -98.94349100
 C          1.9797248448        0.7924600237        0.5417492507
 C          2.1156241582        0.1177835883       -0.6953503694
 C          2.3304545106       -1.3310342495       -0.6094611426
 C          2.3342390701       -1.9371060843        0.5914462722
 C          2.4927137316       -3.4132425604        0.8380745890
 C          3.9504806752       -3.8933229401        0.8637624725
 C          4.6461671986       -3.9342139642       -0.4973686370
 H          5.5763981792       -4.4900024978       -0.3645264601
 H          4.0292133574       -4.4933190391       -1.2013191279
 C          4.9747236918       -2.5532445371       -1.0814393473
 H          4.9211605916       -1.8015791611       -0.2905889276
 H          6.0001999245       -2.5512508426       -1.4573926103
 C          4.0684683336       -2.1209787791       -2.2340536809
 H          4.2083639631       -2.7937814102       -3.0829129941
 H          4.3658979606       -1.1168084903       -2.5460938784
 C          2.5753139167       -2.0833474722       -1.8825863913
 H          2.0449242849       -1.5585960929       -2.6810867783
 H          2.1784220695       -3.0956634088       -1.8071860193
 H          4.5159259675       -3.2520980945        1.5438086885
 H          3.9522837341       -4.9032365604        1.2802600691
 H          2.0445749076       -3.6124421046        1.8141403451
 H          1.9351430283       -3.9689833869        0.0834494232
 O          2.1686395254       -1.2562755009        1.7579930143
 C          1.9912527922        0.1175693968        1.7605897227
 O          1.8590094319        0.6169530493        2.8990888907
 H         -0.5046447758        0.8028130818        0.4791637870
 C         -0.6166269783        1.7078156664       -0.1007017093
 C          0.4417091366        2.6032378779       -0.1837671409
 C          0.2679614570        3.7675678742       -0.9214907777
 C         -0.9334300136        4.0155155715       -1.5632018890
 C         -1.9786645531        3.1141751230       -1.4891628387
 C         -1.8121112168        1.9415009431       -0.7586393853
 N         -2.8332792096        0.9786278917       -0.7153477840
 S         -2.8576598335       -0.2053343006        0.4778493781
 O         -2.8306418610        0.3986495134        1.7928652662
 O         -1.8345544118       -1.1816145114        0.1953614636
 C         -4.4642689883       -0.9123429475        0.1647431372
 C         -4.5974078735       -1.8141670369       -0.8742779098
 C         -5.8481246859       -2.3467557787       -1.1432745497
 C         -6.9392106038       -1.9705647653       -0.3737265222
 C         -6.7900578879       -1.0663299055        0.6669626447
 C         -5.5418539112       -0.5288648926        0.9403969998
 H         -5.3751237435        0.1703174688        1.7439837434
 H         -7.6390328852       -0.7784994192        1.2657282937
 H         -7.9112604248       -2.3874086591       -0.5846656730
 H         -5.9668424992       -3.0522866624       -1.9496731704
 H         -3.7185013927       -2.0822296907       -1.4374310160
 H         -3.7518576312        1.3489040331       -0.9137490241
 H         -2.9105290926        3.3054925218       -1.9983354926
 H         -1.0564999669        4.9251101380       -2.1312416212
 H          1.0738206313        4.4795401378       -0.9946630947
 C          1.7179366807        2.2859677452        0.5611000421
 H          1.5665145578        2.5549006208        1.6181841637
 C          2.9199940330        3.0418176185        0.0306367081
 C          3.2745534519        4.3902259043        0.5796107348
 C          4.1198309380        3.1992757668        0.9141401504
 H          5.1012543778        3.1185497109        0.4716573117
 H          4.0548422168        2.7874867299        1.9112864471
 H          3.6806404810        5.1303783685       -0.0933254502
 H          2.6450447790        4.7953659754        1.3576621620
 H          3.0941626680        2.8523727849       -1.0222564064
 O          2.0562489031        0.6930815836       -1.8137077425
