  62
        -98.94726194
 C          0.9596720735        1.5432983756       -0.8674038601
 C          2.2656715589        1.5061457975       -0.3134754472
 C          3.0512691023        0.2959426728       -0.5687861074
 C          2.5197376480       -0.6967915079       -1.3035337640
 C          3.1737011658       -2.0129079991       -1.6245962600
 C          3.0164038439       -3.0544255577       -0.5078084087
 C          3.8963693293       -2.8227531935        0.7212104751
 H          3.8751832463       -3.7437777413        1.3074909571
 H          4.9279937920       -2.6583673921        0.4067428300
 C          3.4341948642       -1.6638815921        1.6160100313
 H          3.4662211078       -1.9801719914        2.6618813524
 H          2.3902707879       -1.4248529145        1.3952587640
 C          4.2805335428       -0.3949631802        1.5047745010
 H          3.8280406639        0.3705659996        2.1404737221
 H          5.2875134500       -0.5939460974        1.8800633547
 C          4.3942509323        0.1753946546        0.0854396062
 H          4.8213027682        1.1791854232        0.1550778674
 H          5.0563056384       -0.4459182823       -0.5176230997
 H          3.2639301897       -4.0315585869       -0.9300051534
 H          1.9695882440       -3.0787663402       -0.1924326527
 H          2.6884371340       -2.3931634430       -2.5261876613
 H          4.2323409680       -1.8607396991       -1.8368908800
 O          1.2888557743       -0.6050488362       -1.8643174954
 C          0.4617825047        0.4859003745       -1.6293078303
 O         -0.6576005319        0.3749487383       -2.1679495492
 H         -1.3111900347        0.4906364411        0.0725449726
 C         -1.2806137278        1.1586115081        0.9174131074
 C         -0.6366513395        2.3819109098        0.8080267279
 C         -0.6399839262        3.2349389953        1.9048642971
 C         -1.2514031315        2.8551481214        3.0872535400
 C         -1.8316168055        1.6052397898        3.2123296595
 C         -1.8344298706        0.7473711065        2.1186468614
 N         -2.3736952670       -0.5456541097        2.1915499689
 S         -1.5859197890       -1.7853586890        1.3765952334
 O         -1.9614191518       -2.9831341720        2.1038870708
 O         -0.1652816067       -1.5447903579        1.2716914057
 C         -2.3497123353       -1.8558435179       -0.2275544855
 C         -1.6257164536       -2.3837968374       -1.2762525272
 C         -2.2301035445       -2.5026514541       -2.5167975457
 C         -3.5427541998       -2.0937058423       -2.6850852515
 C         -4.2575585668       -1.5665823868       -1.6207109763
 C         -3.6599873112       -1.4485662729       -0.3766498841
 H         -4.1834915141       -1.0361991453        0.4700562481
 H         -5.2770926302       -1.2430871301       -1.7573651488
 H         -4.0084366187       -2.1806451676       -3.6542597997
 H         -1.6687657532       -2.9017487639       -3.3463557600
 H         -0.5988580244       -2.6709130867       -1.1112646219
 H         -2.6763333138       -0.8368995024        3.1098750768
 H         -2.2680049483        1.2908853695        4.1481187370
 H         -1.2486504918        3.5269654099        3.9321928780
 H         -0.1392584658        4.1891873448        1.8363350473
 C          0.0968149053        2.7289878127       -0.4680365014
 H          0.7986185391        3.5426665192       -0.2378247413
 C         -0.8663467704        3.2102628640       -1.5332050070
 C         -1.3487230002        4.6283900401       -1.4912804709
 C         -0.3938781736        4.1925188590       -2.5609695739
 H         -0.7566512962        4.0907488890       -3.5723792331
 H          0.6314409223        4.5270114284       -2.4972062348
 H         -2.3720901949        4.8304836746       -1.7669902630
 H         -0.9707641022        5.2648769231       -0.7057677030
 H         -1.5628233044        2.4481217000       -1.8564785806
 O          2.7517946615        2.4492280460        0.3687970926
