  62
        -98.94740043
 C          2.5316764869        0.2266978406        0.0117457274
 C          2.2826041728        1.2689422614       -0.9111214512
 C          1.7012336605        2.4940751876       -0.3529382939
 C          1.4450493138        2.5690348876        0.9659376260
 C          0.8669544571        3.7545739244        1.6906472607
 C         -0.6650392695        3.8239059540        1.6333498491
 C         -1.2404398198        4.2646963241        0.2869762250
 H         -0.7389375323        5.1748520976       -0.0445772748
 H         -2.2916963240        4.5098260291        0.4502370199
 C         -1.1517307816        3.1947092117       -0.8094252305
 H         -2.1046069954        3.1315644756       -1.3413636667
 H         -0.9897959998        2.2144014798       -0.3544566300
 C         -0.0697387972        3.4371602913       -1.8620594312
 H         -0.3164902415        4.3289365386       -2.4437917195
 H         -0.0698858499        2.5789805338       -2.5398016830
 C          1.3477223179        3.6020768648       -1.2990148383
 H          1.4447492549        4.5688473170       -0.8046354709
 H          2.0525864062        3.5616526139       -2.1336307134
 H         -0.9904808903        4.5334934897        2.3978051788
 H         -1.0658769359        2.8401847579        1.8908214960
 H          1.2918617110        4.6752814950        1.2893215983
 H          1.1698300352        3.6557581762        2.7352812060
 O          1.7165751468        1.5513101438        1.8244565968
 C          2.2196449647        0.3447772348        1.3662683547
 O          2.3665877319       -0.5194663783        2.2529177349
 O          2.5396035553        1.1801284351       -2.1438179854
 C          3.0387948184       -1.1117072669       -0.4976015988
 C          2.0020901672       -2.1631267106       -0.1836520527
 C          2.2884743251       -3.3925468878        0.3937936258
 C          1.2630682087       -4.2630790200        0.7237080478
 C         -0.0586664604       -3.9215778911        0.5062146354
 C         -0.3532079776       -2.7020188721       -0.0948714398
 C          0.6765074311       -1.8540205317       -0.4615483578
 H          0.4387977351       -0.9107081388       -0.9322166297
 N         -1.6817853353       -2.3154325851       -0.3466480757
 S         -2.0293578694       -0.6609594226       -0.3354325693
 O         -1.7169586841       -0.1270145795       -1.6371920376
 O         -1.4104304284       -0.0174147732        0.8015626244
 C         -3.7995022259       -0.7088568763       -0.1261860777
 C         -4.5910647302       -0.9622664656       -1.2306230571
 C         -5.9655093362       -1.0314988527       -1.0679005989
 C         -6.5227116024       -0.8471423414        0.1889706408
 C         -5.7160447574       -0.5905746508        1.2873728157
 C         -4.3402726245       -0.5219028140        1.1315757282
 H         -3.6731480873       -0.3176032351        1.9539608532
 H         -6.1513252937       -0.4436718498        2.2626609061
 H         -7.5927169181       -0.9006680336        0.3129588384
 H         -6.5959088844       -1.2276204436       -1.9200598462
 H         -4.1121776851       -1.0878108541       -2.1876100485
 H         -2.3545388127       -2.8475521937        0.1881993414
 H         -0.8566286145       -4.5869907555        0.7985768960
 H          1.4971339849       -5.2126034761        1.1808905486
 H          3.3107040155       -3.6614641015        0.6040264177
 H          3.1104048728       -1.0041390444       -1.5906023904
 C          4.4114366315       -1.4240649873        0.0579412211
 C          5.3619801966       -2.2861157497       -0.7166629305
 C          5.6138632241       -0.8141469116       -0.5956700642
 H          6.4250326963       -0.4767057829        0.0316566257
 H          5.4425647740       -0.1905161073       -1.4610044319
 H          6.0058161778       -2.9607434090       -0.1729449491
 H          5.0277761094       -2.6650922934       -1.6705784012
 H          4.4124491212       -1.4983635678        1.1396189556
