  62
        -98.93095607
 C          1.6909790789        0.0789613549       -0.8413181061
 C          2.8506726256       -0.7341663862       -0.8763796254
 C          4.1270033251       -0.0487866835       -0.5960029824
 C          4.1295016528        1.2691698210       -0.3320040247
 C          5.3326866588        2.0833582088        0.0510624785
 C          5.6889898024        1.8340208869        1.5305067935
 C          7.0341178486        1.1402934558        1.7472787702
 H          7.8362795666        1.8645241867        1.5902840967
 H          7.0748657855        0.8253103685        2.7922119768
 C          7.3142230060       -0.0696901512        0.8506709379
 H          7.6420437511        0.2702826194       -0.1328424402
 H          8.1585243405       -0.6036222042        1.2921202926
 C          6.1511606025       -1.0532449748        0.6672786364
 H          6.5594030914       -2.0660271350        0.6708025992
 H          5.4569314007       -0.9884286125        1.5054324356
 C          5.3739829242       -0.8876947050       -0.6522779423
 H          6.0430704378       -0.4968668440       -1.4238714437
 H          5.0325174862       -1.8734818406       -0.9821532467
 H          4.8927334356        1.2353795176        1.9779110010
 H          5.7049171772        2.7844312794        2.0661157810
 H          6.1707675640        1.8274084740       -0.5933369912
 H          5.0779010176        3.1315643032       -0.1065689176
 O          2.9951703593        2.0165717079       -0.3086125581
 C          1.7600697049        1.4459462937       -0.5586937702
 O          0.8072586756        2.2498059689       -0.5103843541
 H         -2.1946644772        0.0213964102       -0.2180745769
 C         -1.6658845728       -0.6627951882        0.4269322103
 C         -0.3526782272       -1.0007083423        0.1356544648
 C          0.3242530910       -1.8593653427        0.9953765887
 C         -0.3092241358       -2.3695186362        2.1140704546
 C         -1.6300066157       -2.0556685003        2.3828663711
 C         -2.3151907576       -1.1985548397        1.5301097557
 N         -3.6521593520       -0.8556532309        1.7695997212
 S         -4.7127702552       -0.6901695409        0.4837327880
 O         -6.0197771871       -0.9177730408        1.0611466671
 O         -4.3430877013       -1.5458378172       -0.6185081618
 C         -4.5763690891        1.0221715249        0.0193361691
 C         -4.2703772393        1.3605120464       -1.2836089481
 C         -4.1783099184        2.7007905882       -1.6242459413
 C         -4.3952245114        3.6736338280       -0.6610035276
 C         -4.7066207352        3.3173093871        0.6425641176
 C         -4.7991893311        1.9793601391        0.9892614066
 H         -5.0424815661        1.6631811855        1.9898909437
 H         -4.8742941955        4.0780023272        1.3879356571
 H         -4.3197486820        4.7156668079       -0.9289696771
 H         -3.9338985660        2.9793834990       -2.6368554229
 H         -4.1044117900        0.5729713086       -2.0024766447
 H         -4.0784167421       -1.3188635943        2.5586317539
 H         -2.1274872917       -2.4697732280        3.2467935549
 H          0.2267151906       -3.0331505891        2.7760759440
 H          1.3439749653       -2.1329369837        0.7717525264
 C          0.2919617720       -0.4490596870       -1.1095894642
 H         -0.2923043556        0.4347741515       -1.4125256661
 C          0.2337593264       -1.4359839600       -2.2687885425
 C          0.0286989331       -2.9076533819       -2.0984386139
 C         -1.0717536652       -2.0629691788       -2.6628056382
 H         -1.3031318602       -2.1513469031       -3.7139501055
 H         -1.9349752052       -1.8809664559       -2.0378652887
 H          0.5729074078       -3.5679881790       -2.7562733402
 H         -0.0879164430       -3.2941639179       -1.0983638381
 H          0.8898864832       -1.1367615919       -3.0804995635
 O          2.8460638126       -1.9667468575       -1.1240327192
