  62
        -98.94507590
 C         -1.5101894210       -1.2399336450       -0.2037917834
 C         -2.8527265308       -1.3618017756        0.2396428018
 C         -3.8516111676       -0.5515267380       -0.4672499840
 C         -3.4543018159        0.2441209866       -1.4765566770
 C         -4.3521398380        1.1703225629       -2.2436708131
 C         -4.3860610346        2.5654601873       -1.6044583681
 C         -4.6416080076        2.5487021791       -0.0971835363
 H         -3.7893910996        2.0817305745        0.4029508857
 H         -4.6768784816        3.5879203792        0.2373951347
 C         -5.9331075263        1.8318184499        0.3212770225
 H         -6.4469909046        2.4444585671        1.0649777337
 H         -6.5989693050        1.7380310988       -0.5373313173
 C         -5.7189731528        0.4536951800        0.9500347838
 H         -6.6614967412        0.1378302042        1.4050163364
 H         -4.9776810993        0.5280276556        1.7498419056
 C         -5.2798850748       -0.6572871953       -0.0120316838
 H         -5.3540564725       -1.6084045786        0.5231359407
 H         -5.9559179186       -0.6908255620       -0.8687200075
 H         -5.1601524934        3.1541673925       -2.1003115986
 H         -3.4232135931        3.0512462802       -1.7812358900
 H         -5.3555078328        0.7501263302       -2.2774352339
 H         -3.9687450538        1.2566963315       -3.2617562587
 O         -2.1646592346        0.3243854597       -1.8866571616
 C         -1.1569817633       -0.3967647708       -1.2580977337
 O         -0.0304172370       -0.2077470912       -1.7526283649
 O         -3.2007435468       -2.1214022824        1.1833578959
 C         -0.4594586718       -2.0355426939        0.5563203234
 C          0.1962864566       -1.1146601854        1.5583106385
 C         -0.3454502745       -0.9990964304        2.8354460132
 C          0.2139712834       -0.1398269741        3.7622562881
 C          1.3176293621        0.6255872336        3.4304004244
 C          1.8615726393        0.5251528341        2.1548284984
 C          1.3060890826       -0.3492325342        1.2306530062
 H          1.7228495995       -0.4066057781        0.2402715813
 N          2.9917858912        1.2761627747        1.8007021968
 S          3.0895705978        1.9928929639        0.2848925873
 O          4.0296223840        3.0801152520        0.4764116946
 O          1.7858265612        2.3667316134       -0.2082754932
 C          3.8670649805        0.7539403087       -0.7285352565
 C          3.1987396514        0.1942717911       -1.7982815815
 C          3.8479114477       -0.7692333868       -2.5564346735
 C          5.1418074844       -1.1496510370       -2.2370360415
 C          5.7994796481       -0.5726123109       -1.1605943405
 C          5.1582330678        0.3892174112       -0.3980900702
 H          5.6339093838        0.8696617931        0.4405201604
 H          6.8059594107       -0.8705941362       -0.9147411730
 H          5.6388725667       -1.9005410105       -2.8310078871
 H          3.3311083463       -1.2187230511       -3.3897503035
 H          2.1831937667        0.4938447935       -2.0082590598
 H          3.3223461088        1.9020121060        2.5212057104
 H          1.7541452041        1.3008776838        4.1508890401
 H         -0.2144134469       -0.0606323429        4.7501571200
 H         -1.2209927358       -1.5810388052        3.0859967699
 H         -1.0278562506       -2.7862940135        1.1227316200
 C          0.5336293705       -2.7534967401       -0.3322430666
 C          1.4028910382       -3.8156592322        0.2695979968
 C          0.3029935687       -4.1936162604       -0.6752097466
 H          0.5655716300       -4.5339318493       -1.6655273950
 H         -0.5770932998       -4.6712171443       -0.2696580230
 H          2.4242315708       -3.8974275262       -0.0685173398
 H          1.2667107520       -4.0342098740        1.3180410775
 H          0.9634414862       -2.1277937392       -1.1028573359
