  62
        -98.94510000
 C          2.5620453025        0.0344084923        0.3704140515
 C          2.2362552482       -0.5837489064       -0.8609965635
 C          1.9549015703       -2.0247132112       -0.7997217180
 C          2.0383328566       -2.6639738487        0.3807559915
 C          1.8061464386       -4.1337599829        0.5817677074
 C          0.3547955202       -4.4457155421        0.9665367465
 C         -0.6872951294       -3.7988084394        0.0542785686
 H         -0.6802993259       -2.7166199377        0.2024653110
 H         -1.6670056712       -4.1547534748        0.3824835891
 C         -0.5104784777       -4.1017506194       -1.4399125392
 H         -1.4919674136       -4.3203331699       -1.8656204805
 H          0.1066718108       -4.9919287517       -1.5708758697
 C          0.0783027821       -2.9449101829       -2.2507073316
 H         -0.4418719130       -2.0202293252       -1.9863311062
 H         -0.1059092837       -3.1409267366       -3.3106252885
 C          1.5856666828       -2.7116448699       -2.0836034440
 H          1.9128765308       -2.0410714762       -2.8836941950
 H          2.1211867976       -3.6581910053       -2.1871809740
 H          0.1813644991       -4.0909434874        1.9854530205
 H          0.2260125267       -5.5303107579        0.9573877977
 H          2.4633888153       -4.4724070331        1.3852789843
 H          2.0692500108       -4.6599100186       -0.3341372133
 O          2.3487704192       -2.0344525572        1.5448184351
 C          2.5891564732       -0.6705329116        1.5714256917
 O          2.8268238234       -0.2115310121        2.7098650673
 O          2.2002119159        0.0331142858       -1.9582077271
 C          2.8508619527        1.5229827275        0.4147691287
 C          1.6994781377        2.3108649820       -0.1642048678
 C          1.8747780249        3.5005978004       -0.8596979708
 C          0.7797794561        4.1902282784       -1.3520935631
 C         -0.5028196615        3.7059024065       -1.1783727105
 C         -0.6883313035        2.5109108349       -0.4893136096
 C          0.4065017730        1.8451201535        0.0342643516
 H          0.2521448233        0.9334431050        0.5930658951
 N         -1.9738969777        1.9609006394       -0.3596222932
 S         -2.2679298999        0.6217828894        0.6061289478
 O         -2.0117328567        0.9269846996        1.9990342871
 O         -1.5735572419       -0.5132065581        0.0565304238
 C         -4.0211975938        0.4439670881        0.3399505740
 C         -4.9057779403        1.0616570125        1.2037683740
 C         -6.2665918157        0.9422851442        0.9690104472
 C         -6.7174094586        0.2123466730       -0.1205902744
 C         -5.8178378180       -0.4045363655       -0.9772843541
 C         -4.4560343836       -0.2887348627       -0.7478607504
 H         -3.7186914426       -0.7561734000       -1.3798709744
 H         -6.1712678248       -0.9747550133       -1.8211446841
 H         -7.7767180477        0.1205942674       -0.3012711877
 H         -6.9683364788        1.4172326598        1.6355110517
 H         -4.5098655435        1.6078146507        2.0449311974
 H         -2.7206520650        2.6395984454       -0.3447852463
 H         -1.3534568524        4.2353191548       -1.5784727958
 H          0.9294712055        5.1162651081       -1.8862613300
 H          2.8686997728        3.8868499013       -1.0170227784
 H          2.9413551591        1.7844397565        1.4806392352
 C          4.1702115471        1.8156377273       -0.2735759760
 C          5.0640857999        2.9113334454        0.2222997684
 C          5.4449155352        1.4784510537        0.4379783799
 H          6.2623802495        1.0663499803       -0.1341864518
 H          5.3583044067        1.0681611178        1.4340070711
 H          5.6260494075        3.4844720632       -0.4997469863
 H          4.7334132923        3.4786181974        1.0793761128
 H          4.1275251941        1.6294199504       -1.3406679304
