  62
        -98.93162245
 C         -1.7418451284       -0.2928532670       -0.8368069507
 C         -2.9153098875        0.4875401187       -0.9769588289
 C         -4.1859886272       -0.1785760751       -0.6247065131
 C         -4.1782462858       -1.4526896129       -0.2010223420
 C         -5.3474033677       -2.3304515136        0.1707586294
 C         -6.4659915013       -1.7041383019        1.0143569116
 C         -6.0022359143       -0.6386623032        2.0181851082
 H         -6.4095041685       -0.8774465520        3.0024556440
 H         -4.9142716457       -0.6531118527        2.1038882153
 C         -6.4662429173        0.7722290526        1.6483598186
 H         -7.5069096004        0.7242166901        1.3201656697
 H         -6.4348027280        1.3979750165        2.5436387563
 C         -5.6357134035        1.4756566387        0.5757390698
 H         -6.1332092239        2.4165197652        0.3280552804
 H         -4.6519049998        1.7310466467        0.9787406378
 C         -5.4157688901        0.6783657301       -0.7204618114
 H         -5.2238791241        1.3931300369       -1.5253485995
 H         -6.2954752098        0.0937004981       -0.9778482636
 H         -7.2184961397       -1.2693600223        0.3579169467
 H         -6.9518270576       -2.5217375264        1.5497114860
 H         -5.7775202713       -2.7318377371       -0.7515657440
 H         -4.9079370249       -3.1713637130        0.7126673416
 O         -3.0232999163       -2.1677252023       -0.0808790740
 C         -1.7941455179       -1.6131032665       -0.3837091394
 O         -0.8301072096       -2.3883103207       -0.2201179765
 O         -2.9314013349        1.6780513717       -1.3789556767
 C         -0.3491584505        0.2239608853       -1.1540134800
 C          0.2695262704        0.9345832183        0.0218946681
 C         -0.4351933917        1.8750839580        0.7659332310
 C          0.1719240292        2.5261183643        1.8243911656
 C          1.4948372164        2.2740474064        2.1433156309
 C          2.2086603237        1.3385661863        1.4042925541
 C          1.5853337094        0.6622846745        0.3651692396
 H          2.1367688456       -0.0821830928       -0.1878126110
 N          3.5510517712        1.0573204189        1.6922030327
 S          4.6279397288        0.8189360665        0.4301970488
 O          5.9216270569        1.1463347658        0.9894149120
 O          4.2334513486        1.5593371176       -0.7445473310
 C          4.5599647355       -0.9312072562        0.1159924088
 C          4.7991518661       -1.7930804069        1.1679191530
 C          4.7616054590       -3.1582832964        0.9358227199
 C          4.4882219744       -3.6359019063       -0.3371265754
 C          4.2538351528       -2.7575394560       -1.3835273728
 C          4.2904342018       -1.3906238909       -1.1576998711
 H          4.1084201184       -0.6736970810       -1.9434162990
 H          4.0391918692       -3.1303942023       -2.3722767342
 H          4.4560873187       -4.6990968141       -0.5158390342
 H          4.9425476835       -3.8459202683        1.7462459745
 H          5.0112238104       -1.3840811874        2.1416773556
 H          3.9533157450        1.6118829495        2.4337083785
 H          1.9719113857        2.7971169917        2.9582762105
 H         -0.3861388010        3.2514190397        2.3974930230
 H         -1.4564208148        2.0999271285        0.4989263165
 H          0.2541105122       -0.6790926762       -1.3410679736
 C         -0.2940764749        1.0641554648       -2.4235824662
 C         -0.1246707861        2.5501141790       -2.4303237349
 C          1.0029102880        1.6701844025       -2.8745053825
 H          1.2478915935        1.6364668316       -3.9257464954
 H          1.8605291970        1.5872624415       -2.2214822504
 H         -0.6736868331        3.1130546788       -3.1696351957
 H         -0.0315466885        3.0572441018       -1.4830329713
 H         -0.9306983808        0.6534461267       -3.2013772390
