  62
        -98.94882264
 C         -1.8835191682       -0.8036783912       -0.2848777759
 C         -1.0378558000       -1.5850601212       -1.1059097197
 C         -0.3857410602       -2.7306621554       -0.4563735320
 C         -0.5907533598       -2.9433069751        0.8566810218
 C          0.0299336922       -4.0553700626        1.6516487605
 C          1.3648305813       -3.6260824312        2.2742656369
 C          2.3344300130       -2.9907380099        1.2779084387
 H          1.9282683204       -2.0270032072        0.9608195452
 H          3.2589268134       -2.7738658622        1.8185285298
 C          2.6464179271       -3.8629515925        0.0537078634
 H          2.3816279891       -4.9000469181        0.2637311077
 H          3.7226735668       -3.8333538712       -0.1290523477
 C          1.9648482933       -3.4144018953       -1.2395951446
 H          2.1709086394       -2.3550963761       -1.4025884203
 H          2.4152778378       -3.9673138111       -2.0684451883
 C          0.4493792370       -3.6378524368       -1.3184276116
 H          0.1393608281       -3.4348141250       -2.3480661323
 H          0.2236361981       -4.6827559993       -1.0934407468
 H          1.1628712182       -2.8942611812        3.0603051698
 H          1.8292140329       -4.5018852620        2.7324801665
 H          0.1806995959       -4.9173421817        1.0037873128
 H         -0.6608924967       -4.3291301987        2.4512627810
 O         -1.3805077902       -2.1494860902        1.6227308930
 C         -2.0415520051       -1.0601105157        1.0774494280
 O         -2.7402178383       -0.4237897164        1.8900192870
 O         -0.8418560435       -1.3418775347       -2.3282049060
 C         -2.6091309992        0.3892338121       -0.8854059753
 C         -2.2141442050        1.6379809867       -0.1363833812
 C         -3.1156820116        2.5711863742        0.3561998886
 C         -2.6636540055        3.6499991632        1.0976268641
 C         -1.3194646414        3.8085688568        1.3788990846
 C         -0.4064385236        2.8888299133        0.8725130617
 C         -0.8590620362        1.8413135484        0.0906501598
 H         -0.1521159098        1.1303307772       -0.3043265834
 N          0.9653279938        3.0155336775        1.1270022731
 S          1.9846449106        1.6883912550        1.1857394664
 O          1.3018186115        0.4791359051        1.5780129011
 O          3.0703890882        2.1180268655        2.0426335767
 C          2.5936535750        1.5700490103       -0.4830814006
 C          2.2010226670        0.5292960319       -1.2984539165
 C          2.6745791460        0.4748187846       -2.5998424535
 C          3.5351417201        1.4587449491       -3.0605150034
 C          3.9283134288        2.4960974996       -2.2276158873
 C          3.4535536086        2.5558639800       -0.9278109465
 H          3.7400110678        3.3385150217       -0.2453336682
 H          4.6004124090        3.2576606382       -2.5888405130
 H          3.9010905986        1.4137936995       -4.0740710572
 H          2.3564546223       -0.3315673566       -3.2419888400
 H          1.5265779098       -0.2207695147       -0.9123048051
 H          1.2141497583        3.7190597157        1.8058211192
 H         -0.9762791464        4.6298755407        1.9894022031
 H         -3.3735171144        4.3661640113        1.4834027796
 H         -4.1712322632        2.4466735133        0.1784363637
 H         -2.2435130901        0.4686086017       -1.9200375199
 C         -4.1028277961        0.1432882464       -0.9104827029
 C         -4.9599586276        0.7980579617       -1.9512871836
 C         -4.6855445827       -0.6731255331       -2.0235896289
 H         -5.4848588729       -1.3615214551       -1.7935794945
 H         -4.0053588152       -1.0323689209       -2.7818634744
 H         -5.9525020948        1.1194281347       -1.6738051764
 H         -4.4717297353        1.4397916303       -2.6687330444
 H         -4.5157977906        0.0029749765        0.0824793366
