  62
        -98.94276531
 C         -1.8170533503       -1.0542669665       -0.1586399768
 C         -3.2006288864       -1.3136393330        0.0182314686
 C         -4.1185281053       -0.2597540444       -0.4276053877
 C         -3.6247755636        0.8715105484       -0.9623063458
 C         -4.4299886249        2.0251246769       -1.4957859494
 C         -4.8769309261        3.0255045671       -0.4210102113
 C         -5.9873455139        2.5300965075        0.5062835900
 H         -6.3512592828        3.3965985596        1.0619787899
 H         -6.8184760663        2.1550645132       -0.0917671193
 C         -5.5430494180        1.4535770820        1.5064698743
 H         -4.4528426251        1.4496396970        1.5766141249
 H         -5.9262949545        1.6985307040        2.4995991534
 C         -6.0224350773        0.0407949312        1.1726209302
 H         -7.1124489948        0.0003967523        1.2296822629
 H         -5.6208331250       -0.6443677584        1.9236462273
 C         -5.5871613223       -0.4647389121       -0.2092089362
 H         -5.7849358326       -1.5383683257       -0.2593732889
 H         -6.1613663437        0.0333382231       -0.9903307548
 H         -4.0063354705        3.3116796399        0.1735152062
 H         -5.2356045519        3.9190289553       -0.9371018177
 H         -3.7884454313        2.5485485744       -2.2080459846
 H         -5.3031359801        1.6466757278       -2.0281607986
 O         -2.2912952184        1.0927885793       -1.0954960836
 C         -1.3543232800        0.1545099443       -0.6784970555
 O         -0.1762456979        0.5266719876       -0.8265319103
 H          1.8912605767       -2.0300090385       -0.2207223245
 C          1.6081095704       -1.5756253357        0.7135379460
 C          0.2788312848       -1.5187248058        1.1018564579
 C         -0.0388948028       -0.8902778123        2.3040593693
 C          0.9459683926       -0.3282808895        3.0918413138
 C          2.2720240256       -0.3841254134        2.6988724753
 C          2.6015381011       -1.0105086107        1.5035293489
 N          3.9466144873       -1.1190831446        1.1039288594
 S          4.4585422966       -0.5716687445       -0.3922839326
 O          3.7118687595       -1.2188488229       -1.4381560207
 O          5.8874958171       -0.8031405088       -0.3910848630
 C          4.1532175977        1.1860287383       -0.3664074687
 C          2.8621036428        1.6528385646       -0.5086610514
 C          2.6390163673        3.0193211433       -0.4256268965
 C          3.6964725797        3.8874188656       -0.2037700250
 C          4.9871346241        3.3996805004       -0.0621176475
 C          5.2188184002        2.0363349142       -0.1387603338
 H          6.2044621051        1.6115406516       -0.0369263388
 H          5.8093406563        4.0756954685        0.1094931681
 H          3.5127686631        4.9486443010       -0.1416062774
 H          1.6309701481        3.3869684168       -0.5350088175
 H          2.0467533740        0.9683691448       -0.6809579503
 H          4.6030154563       -0.8089549056        1.8070475036
 H          3.0456427577        0.0507488666        3.3137142608
 H          0.6818790462        0.1581829118        4.0187429120
 H         -1.0756653837       -0.8463699016        2.6099445265
 C         -0.8379232910       -2.1238307194        0.2887988367
 H         -1.4289062740       -2.7706405973        0.9597029843
 C         -0.3376459766       -3.0158561017       -0.8373863994
 C         -1.1834118859       -3.2978185786       -2.0421108727
 C          0.0607809550       -2.4744748653       -2.1760043618
 H          0.9218469753       -2.9040465388       -2.6675066166
 H         -0.0366062719       -1.4122866739       -2.3368202797
 H         -1.1855607877       -4.2998440841       -2.4440666877
 H         -2.1374400477       -2.7958800027       -2.1143168675
 H          0.2485837025       -3.8491289379       -0.4606362689
 O         -3.6462467272       -2.3762646100        0.5268363014
