  62
        -98.93564689
 C         -1.6800251075       -1.0241576804        0.2776866426
 C         -1.9302797336        0.3671526889        0.1673939206
 C         -3.2382780571        0.7845003856       -0.3718792215
 C         -4.1131395999       -0.1677414309       -0.7445973026
 C         -5.5101404515        0.0032339781       -1.2794247796
 C         -6.5223905899        0.3721652181       -0.1829091206
 C         -6.0444236475        1.4370795873        0.8006913130
 H         -6.8016544370        1.5287707490        1.5839353103
 H         -5.1244892940        1.0957030794        1.2786807083
 C         -5.8216650383        2.8237547938        0.2016848041
 H         -5.5747588761        3.4968600061        1.0267073505
 H         -6.7549023921        3.1749093340       -0.2443969963
 C         -4.7115102307        2.9306683984       -0.8461166933
 H         -4.5066467539        3.9949374881       -0.9944069172
 H         -5.0403964974        2.5438675337       -1.8068553537
 C         -3.3893143342        2.2849507242       -0.4433585565
 H         -2.6094744496        2.6257338731       -1.1349291936
 H         -3.0881839630        2.6657255767        0.5390638056
 H         -7.4451826537        0.7031920908       -0.6623976401
 H         -6.7449798474       -0.5321938918        0.3887280835
 H         -5.5175665726        0.7397002864       -2.0773996286
 H         -5.8000259334       -0.9574537307       -1.7108019466
 O         -3.8263687900       -1.4946079540       -0.6340213639
 C         -2.6246329804       -1.9632129658       -0.1344096671
 O         -2.5460522325       -3.2079233194       -0.1189201037
 O         -1.0922435249        1.2405362554        0.5196858553
 C         -0.3327258600       -1.4258761150        0.8499685233
 C          0.6610507343       -1.7577147411       -0.2375319094
 C          0.4726062314       -2.8364672096       -1.0951285136
 C          1.4156389622       -3.1291180508       -2.0630172411
 C          2.5674644930       -2.3707058440       -2.1808335099
 C          2.7634738743       -1.2890328963       -1.3305393615
 C          1.8033923579       -0.9832849358       -0.3761445550
 H          1.9515576885       -0.1328778079        0.2712627298
 N          3.9107184936       -0.4923459905       -1.4339591231
 S          4.6169916625        0.1713419806       -0.0704295908
 O          5.9821887323        0.4391948069       -0.4696742736
 O          4.4477439705       -0.6780503943        1.0849837450
 C          3.7698786063        1.7189035888        0.1603819076
 C          3.2112091023        2.0207827524        1.3858810132
 C          2.5695042662        3.2379666712        1.5493966360
 C          2.5003335083        4.1280942336        0.4894612161
 C          3.0711328940        3.8122567893       -0.7342192098
 C          3.7136048479        2.5968628133       -0.9037004382
 H          4.1709741480        2.3168889513       -1.8380738153
 H          3.0140835091        4.5084394543       -1.5555498043
 H          1.9961787927        5.0727737500        0.6187670000
 H          2.1214900470        3.4833089463        2.4989694535
 H          3.2827221900        1.2975297636        2.1834687467
 H          4.5955940797       -0.8095065327       -2.1039751565
 H          3.3089057520       -2.6116371725       -2.9275827305
 H          1.2587470390       -3.9666327592       -2.7261837919
 H         -0.4207574625       -3.4342434245       -0.9998149920
 H          0.0368670696       -0.5290444102        1.3659308793
 C         -0.4030095071       -2.5589912516        1.8559072034
 C          0.7784408041       -2.7994437392        2.7460932497
 C         -0.4900640843       -2.2415181200        3.3169624871
 H         -1.0951669472       -2.8764232451        3.9466965496
 H         -0.5055239608       -1.1999866541        3.6033904479
 H          1.0440312995       -3.8183148827        2.9834058058
 H          1.6291259960       -2.1417607941        2.6392772921
 H         -0.9484311637       -3.4221786941        1.4978328725
