  62
        -98.94201861
 C         -0.7168651998       -1.3122612293        0.5321374505
 C         -1.1510497293       -0.8242906299       -0.7216722798
 C         -2.1406297592        0.2675899202       -0.6883370907
 C         -2.5464487296        0.7455086908        0.5007143189
 C         -3.6295581596        1.7569498310        0.7564891680
 C         -4.9786182098        1.0520634412        0.9846047478
 C         -5.7867222393        0.7801949007       -0.2835808424
 H         -6.6512501595        0.1782029409        0.0058895776
 H         -6.1644018891        1.7259321705       -0.6777881830
 C         -5.0328807989        0.0512755401       -1.3988515418
 H         -4.4430175592       -0.7628683898       -0.9736420311
 H         -5.7735416287       -0.3996109902       -2.0623391218
 C         -4.1261432885        0.9777572396       -2.2223217618
 H         -4.3795117185        2.0136174897       -1.9985392424
 H         -4.3315378881        0.8313690191       -3.2846198119
 C         -2.6182278586        0.7575327296       -2.0275730812
 H         -2.2672095784        0.0020474692       -2.7372785407
 H         -2.0860069785        1.6834120894       -2.2659924814
 H         -5.5892871200        1.6693233516        1.6467356773
 H         -4.7832123800        0.1110725714        1.5054921283
 H         -3.6962541193        2.4687846506       -0.0598409524
 H         -3.3589429799        2.2865387214        1.6713103878
 O         -2.0471290201        0.2923363013        1.6846301493
 C         -1.1333338502       -0.7431761787        1.7337448501
 O         -0.7726839007       -1.0619184582        2.8862943804
 O         -0.7503047789       -1.2925411905       -1.8192633995
 C          0.2338523801       -2.4924042894        0.5934975915
 C          1.4773465104       -2.2314955799       -0.2205644382
 C          2.0854647607       -3.2021338703       -1.0066500375
 C          3.2383324410       -2.9078387907       -1.7133276172
 C          3.8103612010       -1.6513912107       -1.6463007176
 C          3.2115194508       -0.6736113303       -0.8587863583
 C          2.0577489905       -0.9716144399       -0.1528788886
 H          1.5992309203       -0.2141698496        0.4663323209
 N          3.7451849209        0.6187870797       -0.7995927487
 S          3.4620745805        1.6394857703        0.4825090307
 O          4.4321445506        2.7004390802        0.3078823406
 O          3.5127461099        0.9482768109        1.7501100211
 C          1.8376188606        2.3038370903        0.1904061098
 C          1.5069442812        2.7137861297       -1.0854142405
 C          0.2692893413        3.2978725997       -1.3000281913
 C         -0.6080087691        3.4693984703       -0.2405752717
 C         -0.2618561596        3.0500489109        1.0340632886
 C          0.9714939702        2.4591314509        1.2538129494
 H          1.2719201998        2.1063299513        2.2287397597
 H         -0.9431950699        3.1778194413        1.8598165583
 H         -1.5661697890        3.9355173303       -0.4056307223
 H         -0.0038324783        3.6225440393       -2.2913981115
 H          2.2154073615        2.5711450493       -1.8842338602
 H          4.6433055411        0.7539613294       -1.2376330684
 H          4.7079676113       -1.4224318111       -2.1998293073
 H          3.6994092711       -3.6693431210       -2.3238804866
 H          1.6557681406       -4.1883487103       -1.0693034372
 H          0.5354955597       -2.5876993389        1.6479502516
 C         -0.4977826998       -3.7544633095        0.1793522518
 C         -0.1371976702       -5.0778298393        0.7824448826
 C         -1.4229689902       -4.4075340490        1.1601553218
 H         -2.3505749101       -4.8245940691        0.7976569416
 H         -1.4995682106       -3.9589928485        2.1403982615
 H         -0.1852751300       -5.9592279496        0.1607138930
 H          0.6568307896       -5.0951138090        1.5138350329
 H         -0.8061112294       -3.7307756400       -0.8598555383
