  62
        -98.94579867
 C         -1.7140070860       -1.4644787864       -0.4360665137
 C         -1.5002040938       -0.2187309256       -1.0757219512
 C         -2.6506311358        0.6959534775       -1.0949411154
 C         -3.8274886114        0.3158801140       -0.5680744508
 C         -5.0979955707        1.1221839476       -0.5520671397
 C         -5.1963034874        2.1172840456        0.6118342462
 C         -4.2786582769        3.3357132964        0.5033696789
 H         -4.4181688939        3.8105916715       -0.4682888755
 H         -4.6004620892        4.0495681384        1.2643000183
 C         -2.7903731213        3.0250086528        0.7173795295
 H         -2.6835126111        2.0512311982        1.2019041683
 H         -2.3534688252        3.7613874487        1.3959922678
 C         -1.9434666992        3.0331148915       -0.5554505206
 H         -0.9237716166        2.7516252301       -0.2777097159
 H         -1.9139528315        4.0442650688       -0.9689361028
 C         -2.4353812214        2.0725563964       -1.6464690020
 H         -3.3526855010        2.4528148524       -2.0964459873
 H         -1.6659843466        2.0077955671       -2.4195948106
 H         -6.2297421704        2.4691306765        0.6538052801
 H         -4.9867766658        1.5872895152        1.5439483657
 H         -5.2038793513        1.6555853913       -1.4971596639
 H         -5.9178779928        0.4061886437       -0.4621505369
 O         -4.0060694240       -0.9043298654        0.0045076685
 C         -2.9548813797       -1.7983285812        0.1158592534
 O         -3.2519757189       -2.8581082737        0.7044985683
 H          1.1893441322       -0.4996591371        0.0491676483
 C          1.0904934186       -1.0938571609        0.9414131003
 C          0.2027640342       -2.1616165716        0.9613157476
 C          0.0604174353       -2.8957503241        2.1335200899
 C          0.7872602977       -2.5647269878        3.2627210769
 C          1.6622745608       -1.4947316944        3.2433842110
 C          1.8110026979       -0.7504197065        2.0766432550
 N          2.7137346113        0.3170580774        2.0389005684
 S          2.5062911066        1.6617243375        1.0618841667
 O          3.2939266774        2.6853541955        1.7206915585
 O          1.1128721934        1.9719324827        0.8600806749
 C          3.3297388641        1.2091077313       -0.4493474925
 C          4.6983827832        1.0283977559       -0.3824641540
 C          5.3856520305        0.6690296929       -1.5292948146
 C          4.6954413642        0.4974103633       -2.7204160599
 C          3.3237443222        0.6865096102       -2.7706893911
 C          2.6283222509        1.0481893436       -1.6258958844
 H          1.5576660291        1.1824412383       -1.6345679456
 H          2.7827173724        0.5510764542       -3.6938639530
 H          5.2289173212        0.2153626245       -3.6146252917
 H          6.4531772087        0.5225327499       -1.4929422883
 H          5.1956228405        1.1826633989        0.5607280797
 H          3.1371272664        0.5534222322        2.9234491810
 H          2.2257992685       -1.2303149502        4.1254458728
 H          0.6664527615       -3.1405765285        4.1679519753
 H         -0.6422348846       -3.7161788245        2.1580498520
 C         -0.6235218813       -2.5112686370       -0.2547001625
 H         -1.1509992834       -3.4499842603       -0.0362663692
 C          0.2378709166       -2.7236115687       -1.4828270298
 C          1.0289013636       -3.9907861300       -1.5976211376
 C         -0.1584759676       -3.7649390268       -2.4838112607
 H          0.0072031071       -3.5611828354       -3.5309391996
 H         -1.0573547189       -4.3317090479       -2.2875460712
 H          0.9348154652       -4.7128436462       -0.8004553322
 H          2.0140790403       -3.9434435670       -2.0351796365
 H          0.6832151912       -1.8158536781       -1.8654008752
 O         -0.4252980121        0.1294299727       -1.6283725940
