  62
        -98.93800442
 C         -2.4265284035       -0.4084258694        0.4708226634
 C         -3.2213005576       -0.3592989537       -0.7015961250
 C         -4.3104533448        0.6297251124       -0.6880989989
 C         -4.4698388571        1.4473216659        0.3669456970
 C         -5.5125188645        2.5228685284        0.5080686285
 C         -6.8705150516        2.0135571107        1.0102463115
 C         -7.6787702627        1.2056268847       -0.0059148154
 H         -7.7578289284        1.7691370546       -0.9360766786
 H         -8.6876793246        1.1007148593        0.3981134619
 C         -7.1156598559       -0.1928490831       -0.2952633833
 H         -7.9275969033       -0.9234253007       -0.2760578665
 H         -6.4147059020       -0.4735216575        0.4944154561
 C         -6.4168008923       -0.3274831467       -1.6482758617
 H         -7.1420043936       -0.1783554652       -2.4513019979
 H         -6.0259691077       -1.3447528918       -1.7325562940
 C         -5.2502116251        0.6470510420       -1.8560470991
 H         -5.6277911261        1.6548819628       -2.0265653947
 H         -4.6898001905        0.3277139309       -2.7380140380
 H         -7.4596475497        2.8871881902        1.2985796990
 H         -6.7077890543        1.4120949589        1.9076868604
 H         -5.6443496924        3.0335338670       -0.4462124979
 H         -5.1230502063        3.2387868779        1.2350526978
 O         -3.6572297537        1.3980076997        1.4566835995
 C         -2.6409383814        0.4631179397        1.5421679045
 O         -2.0002770413        0.5025736178        2.6129985240
 O         -3.0494895971       -1.0853424172       -1.7126430067
 C         -1.2833723810       -1.3924419314        0.6597351657
 C          0.0006807936       -0.8261596164        0.1107118712
 C          0.0907035688       -0.3795516810       -1.2042088761
 C          1.2805518006        0.1315814689       -1.6891467091
 C          2.3985257767        0.2152530951       -0.8771303786
 C          2.3180902027       -0.2218167140        0.4377426861
 C          1.1234470574       -0.7415586523        0.9204622785
 H          1.0617512066       -1.0712645548        1.9492758074
 N          3.4442138792       -0.1208865346        1.2713067831
 S          4.9063232860       -0.7313234205        0.7163413009
 O          4.7019248895       -1.8167182645       -0.2144096295
 O          5.6625533448       -1.0404124541        1.9099816603
 C          5.6657919331        0.6506735363       -0.1094518000
 C          6.0802520381        0.5254198448       -1.4208960472
 C          6.6824760544        1.6099628179       -2.0396797133
 C          6.8593566463        2.7933499953       -1.3393394557
 C          6.4392068973        2.9020839865       -0.0219048075
 C          5.8375280532        1.8214710997        0.6028299806
 H          5.5008340974        1.8643885049        1.6252562383
 H          6.5783666269        3.8241625288        0.5191881977
 H          7.3276706120        3.6360712958       -1.8229508013
 H          7.0101236966        1.5274871883       -3.0635484088
 H          5.9176190564       -0.4126354036       -1.9275030243
 H          3.2739386081       -0.4031078962        2.2256934194
 H          3.3266247284        0.6151578359       -1.2517117403
 H          1.3384377660        0.4718137315       -2.7119808975
 H         -0.7801742597       -0.4433234376       -1.8387796495
 H         -1.1629315955       -1.4819058994        1.7513134741
 C         -1.6013972270       -2.7847633498        0.1304792692
 C         -0.9169679726       -3.4135778319       -1.0418709378
 C         -0.6231535323       -3.9027631996        0.3423675613
 H         -0.9955753111       -4.8695729200        0.6456440929
 H          0.3381942051       -3.6480740103        0.7647306940
 H         -1.5155948821       -4.0284373878       -1.6963851642
 H         -0.1513817554       -2.8525429884       -1.5537636886
 H         -2.6503774467       -3.0324977826        0.2576017753
