  62
        -98.94500911
 C         -1.7584748097       -0.9903733684       -0.4712543523
 C         -0.7535690800       -1.6717587781       -1.2019529729
 C         -0.0002469209       -2.6994600296       -0.4748830641
 C         -0.2655750614       -2.9091464112        0.8268243255
 C          0.4516980877       -3.8994115029        1.6980301844
 C          1.6457829679       -3.2536663747        2.4137746356
 C          2.5545146287       -2.4400037740        1.4921072770
 H          1.9979741694       -1.5682587832        1.1381637980
 H          3.3754985188       -2.0604727754        2.1064597377
 C          3.1245673185       -3.2221795528        0.3001149561
 H          4.1852527187       -2.9808805934        0.2024066967
 H          3.0535010278       -4.2928794830        0.4966296746
 C          2.4690590391       -2.9091895905       -1.0462738937
 H          3.0938482791       -3.3359581898       -1.8352396841
 H          2.4386136999       -1.8271204503       -1.1962273922
 C          1.0495931088       -3.4562726793       -1.2382862248
 H          0.7903277692       -3.3461487577       -2.2952265148
 H          1.0233321380       -4.5179841996       -0.9850010763
 H          2.2242363273       -4.0410433657        2.9017477347
 H          1.2653736182       -2.5795021755        3.1851606064
 H          0.7898090773       -4.7339019123        1.0861314533
 H         -0.2505839628       -4.2703845834        2.4468453537
 O         -1.2048710411       -2.2087082115        1.5089504062
 C         -1.9423075003       -1.2038626502        0.8965995774
 O         -2.7177914301       -0.6095581007        1.6689478680
 O         -0.4956034995       -1.4272927666       -2.4120430425
 C         -2.5158808188        0.1138290231       -1.1906728210
 C         -2.3730879182        1.3887040219       -0.4000046292
 C         -3.4337343878        2.1592305220        0.0540015916
 C         -3.1949586272        3.2858199408        0.8232697832
 C         -1.9075988471        3.6531490894        1.1681245040
 C         -0.8385032775        2.8899724293        0.7104578333
 C         -1.0781663880        1.7898065306       -0.0928921883
 H         -0.2477943383        1.1929239105       -0.4433938789
 N          0.4867189527        3.2290547080        1.0246221541
 S          1.6505999018        2.0402673170        1.1923167828
 O          1.1009562009        0.7897103367        1.6622112310
 O          2.6632398620        2.6378472252        2.0394469139
 C          2.3434578421        1.8249295288       -0.4363003673
 C          3.2873854615        0.8268834883       -0.5817685084
 C          3.8744636417        0.6272865596       -1.8208826985
 C          3.5095058926        1.4278916813       -2.8919681275
 C          2.5654284732        2.4291002417       -2.7291549364
 C          1.9763308630        2.6356538904       -1.4908822063
 H          1.2354919635        3.4033964007       -1.3409051854
 H          2.2819778938        3.0506167631       -3.5633311156
 H          3.9624256527        1.2686497124       -3.8577021576
 H          4.6083665312       -0.1528275607       -1.9455866593
 H          3.5389025309        0.2232593170        0.2761096409
 H          0.5983860530        3.9656229070        1.7051726352
 H         -1.7272797567        4.5144717184        1.7931394853
 H         -4.0269091169        3.8751414608        1.1782046238
 H         -4.4461520279        1.8637997530       -0.1669453491
 H         -1.9613890784        0.2412141540       -2.1362291706
 C         -3.9469966289       -0.2223731055       -1.5767492218
 C         -4.3779716198       -1.6447350749       -1.7716780639
 C         -4.9220036996       -0.8473364961       -0.6262529130
 H         -5.9534465694       -0.5286960053       -0.6714421428
 H         -4.5763149500       -1.0704799777        0.3702462468
 H         -5.0326639097       -1.8760670633       -2.5984872744
 H         -3.6551204404       -2.4182130357       -1.5546647848
 H         -4.3534421982        0.4993958358       -2.2788811910
