  62
        -98.94515735
 C         -1.5260777939       -0.8143541431       -0.0004916525
 C         -2.8019079155       -1.4243182975        0.0137795916
 C         -3.9038520022       -0.5925025598        0.5162875809
 C         -3.6427462958        0.6565776457        0.9438715190
 C         -4.6778163149        1.6284013139        1.4306263338
 C         -5.2118462647        2.4936912490        0.2806091565
 C         -5.6322848866        1.6917206099       -0.9510074026
 H         -6.0201119867        2.4017130899       -1.6847269351
 H         -4.7485846966        1.2245663227       -1.3916392037
 C         -6.6897206169        0.6134674205       -0.6760194386
 H         -7.1858730812        0.8141551801        0.2743020038
 H         -7.4524121454        0.6631945070       -1.4561023106
 C         -6.1495181407       -0.8178391099       -0.6728768522
 H         -7.0014843643       -1.5028862491       -0.6890124001
 H         -5.5719502712       -0.9936775848       -1.5840661482
 C         -5.2786542748       -1.1993384853        0.5309243504
 H         -5.1282883813       -2.2826558888        0.5015561790
 H         -5.8014952902       -0.9510012263        1.4569385211
 H         -6.0620484104        3.0708542641        0.6487405029
 H         -4.4288398475        3.1941857290       -0.0182488375
 H         -4.2163141687        2.2768266330        2.1771582525
 H         -5.4944406260        1.0796401648        1.8957245846
 O         -2.3986095472        1.1988816059        0.9385706841
 C         -1.3080806800        0.4846540963        0.4607266222
 O         -0.2291461385        1.1011511271        0.5035464468
 O         -3.0084517900       -2.6082137420       -0.3688632797
 C         -0.3380200176       -1.5952118619       -0.5306488410
 C          0.7545717505       -1.6481315620        0.5072107066
 C          0.4333126261       -2.0140184246        1.8123450797
 C          1.4022215039       -2.0458096792        2.7955497311
 C          2.7112044488       -1.7026960749        2.5035495607
 C          3.0454009709       -1.3524727279        1.2016709057
 C          2.0728260093       -1.3426807288        0.2104061774
 H          2.3655221227       -1.0934009719       -0.7946922678
 N          4.3637708519       -1.0171359717        0.8701785836
 S          4.7047774247        0.0299735654       -0.3825480019
 O          4.5632069911       -0.6493612112       -1.6466501864
 O          6.0361858247        0.5132118771       -0.0811321469
 C          3.5386602069        1.3746405078       -0.2739728529
 C          2.8189159836        1.7364896521       -1.3933156719
 C          1.9359401664        2.7997317958       -1.3089804830
 C          1.7862085733        3.4777052190       -0.1108374725
 C          2.5177857189        3.1035403940        1.0043801700
 C          3.4048043965        2.0435999893        0.9252886916
 H          3.9884099329        1.7333605359        1.7771185676
 H          2.3917437194        3.6298403312        1.9369377873
 H          1.0884970855        4.2973830528       -0.0440841059
 H          1.3599815172        3.0889163738       -2.1741169788
 H          2.9589908222        1.1764649757       -2.3049299008
 H          4.9932373369       -0.9034831156        1.6500849697
 H          3.4666141942       -1.7109159615        3.2741833588
 H          1.1361124705       -2.3288175935        3.8029589781
 H         -0.5922608571       -2.2657828386        2.0463379071
 H         -0.7065568739       -2.6174200134       -0.7033354351
 C          0.1189914401       -1.0088636474       -1.8501809796
 C          0.8027413961       -1.8710640195       -2.8674078585
 C         -0.5957980253       -1.3903644159       -3.1102085602
 H         -0.7594628465       -0.6321877520       -3.8613130518
 H         -1.4030848702       -2.1033716871       -3.0262564037
 H          1.6079055956       -1.4466336888       -3.4488205288
 H          0.9457432363       -2.9130624869       -2.6235966876
 H          0.4446898070        0.0212767945       -1.7512187104
