  62
        -98.94148447
 C          2.5255922590        1.1555554092        0.0607041019
 C          2.4128818152       -0.2277021534       -0.2204049488
 C          3.4869696757       -1.0747957298        0.3146611933
 C          4.4784182792       -0.5255008715        1.0391760479
 C          5.6328335328       -1.2607307338        1.6643054259
 C          6.8018135677       -1.5195417138        0.7037591848
 C          6.5493925453       -2.5936229316       -0.3550997922
 H          7.5136032496       -2.8262637613       -0.8113538549
 H          6.1906454679       -3.5024842641        0.1289668411
 C          5.5694129231       -2.1760491545       -1.4603850619
 H          5.4597699248       -1.0891808193       -1.4588448146
 H          5.9779063747       -2.4554878265       -2.4341341787
 C          4.1833435146       -2.8118666785       -1.3521035360
 H          4.2635517038       -3.8931861917       -1.4842263271
 H          3.5609740390       -2.4196500648       -2.1605138921
 C          3.4641782322       -2.5345592108       -0.0254573809
 H          2.4181556049       -2.8343869179       -0.1310432831
 H          3.9144728747       -3.1194883983        0.7764146436
 H          7.0654820437       -0.5795962410        0.2136284355
 H          7.6567189127       -1.8304415389        1.3085363077
 H          5.9924376981       -0.6343224597        2.4834246492
 H          5.2833843208       -2.2069727245        2.0783383829
 O          4.5343985516        0.8054731981        1.3106679775
 C          3.5707096227        1.6743411174        0.8273774684
 O          3.7497050235        2.8670707886        1.1455931063
 H         -0.7542626867        0.9132786670       -1.5028673891
 C         -0.8636868605        1.1444127906       -0.4551854286
 C          0.1615967714        1.7829281217        0.2206689150
 C          0.0017968665        2.0484965293        1.5784575286
 C         -1.1557664267        1.6805059524        2.2352713563
 C         -2.1772830378        1.0369350734        1.5565591501
 C         -2.0236120695        0.7552794886        0.2069584670
 N         -3.0474815925        0.1144496426       -0.5125911254
 S         -3.8131398029       -1.2808530177        0.0326010325
 O         -3.4098914625       -1.5969337045        1.3803505512
 O         -3.6095498742       -2.3072905903       -0.9669704650
 C         -5.5295283194       -0.7915317234        0.0117921268
 C         -6.3960680186       -1.3943919988       -0.8784573446
 C         -7.7248458518       -0.9997141483       -0.8972362348
 C         -8.1633298021       -0.0104262654       -0.0310854500
 C         -7.2812595730        0.5883225232        0.8559921105
 C         -5.9526927159        0.1962527666        0.8793507941
 H         -5.2419909118        0.6412508337        1.5557583738
 H         -7.6233146507        1.3590817584        1.5278943423
 H         -9.1971520098        0.2966187634       -0.0469684775
 H         -8.4111103123       -1.4642917976       -1.5869131469
 H         -6.0118999599       -2.1592286136       -1.5336133459
 H         -2.8128686433       -0.0081097418       -1.4875177871
 H         -3.0637852509        0.7178161719        2.0780495801
 H         -1.2664384374        1.8919677628        3.2883237894
 H          0.8075141039        2.5347788409        2.1120296436
 C          1.4744397208        2.1358276363       -0.4346639454
 H          1.7849537635        3.1237650361       -0.0686896867
 C          1.4262414179        2.1686289955       -1.9474578592
 C          0.7622580949        3.3191514270       -2.6408219206
 C          2.2536203586        3.1787222423       -2.6815365479
 H          2.7198496315        2.8848371284       -3.6100571956
 H          2.8498611338        3.8586233941       -2.0905822910
 H          0.2039999574        3.1261382255       -3.5442306881
 H          0.3434276736        4.0974467899       -2.0212321887
 H          1.3392867894        1.1844988185       -2.3924381241
 O          1.4726379777       -0.7374020069       -0.8854652232
