  62
        -98.94368371
 C         -1.7661672699       -0.4830628404        0.4896099790
 C         -2.9543811772       -0.4489707260        1.2572509628
 C         -4.1997191941       -0.6782288794        0.5163863768
 C         -4.1539849983       -0.9220501604       -0.8062725066
 C         -5.3360850139       -1.1983569562       -1.6955383121
 C         -6.0432889355        0.0648611160       -2.2054473076
 C         -6.8637179402        0.8188337242       -1.1581251709
 H         -7.4729502495        1.5498964910       -1.6934141151
 H         -7.5460695391        0.1260612576       -0.6645989061
 C         -6.0230367697        1.5541230862       -0.1049932158
 H         -6.4127789960        2.5654781272        0.0315188300
 H         -4.9958229469        1.6533969387       -0.4637927922
 C         -6.0048206224        0.8862250847        1.2700672031
 H         -5.3540434928        1.4698731954        1.9264534353
 H         -7.0102115431        0.8985897267        1.6967994664
 C         -5.4946025627       -0.5609010724        1.2623654157
 H         -5.3116783618       -0.8653278798        2.2958411703
 H         -6.2453925649       -1.2221994052        0.8305045184
 H         -6.7155043454       -0.2406150843       -3.0105575946
 H         -5.2946934444        0.7353349054       -2.6338540390
 H         -4.9537837491       -1.7496979105       -2.5571869389
 H         -6.0518790059       -1.8296674364       -1.1684048392
 O         -2.9882185346       -0.9657942523       -1.5043252085
 C         -1.7700281426       -0.7263631518       -0.8840048396
 O         -0.7882297697       -0.7650006504       -1.6485513757
 H          2.1768635317        0.0646132587        0.3520399939
 C          1.5841564833        0.9511467216        0.2046352692
 C          0.2482116163        0.9659723033        0.5713178110
 C         -0.4822894513        2.1364706351        0.3791801908
 C          0.1059381248        3.2526430275       -0.1814408492
 C          1.4396795974        3.2316284914       -0.5511257273
 C          2.1810211723        2.0738444275       -0.3541120430
 N          3.5261594694        2.0128155261       -0.7401384227
 S          4.6371378352        1.1361702279        0.1451827777
 O          4.3694789605        1.2088487392        1.5627148251
 O          5.9223626046        1.6493637025       -0.2803380483
 C          4.4700859767       -0.5416852529       -0.4262921362
 C          4.6767850508       -1.5705673857        0.4713968026
 C          4.5881599294       -2.8796571067        0.0247850583
 C          4.2967426102       -3.1355550510       -1.3060639682
 C          4.0951165431       -2.0910606683       -2.1953366482
 C          4.1856576997       -0.7799565484       -1.7560069981
 H          4.0269742743        0.0527752449       -2.4206073072
 H          3.8635024532       -2.2936032716       -3.2286685245
 H          4.2241044165       -4.1547782318       -1.6516429959
 H          4.7440454138       -3.6936214508        0.7150599491
 H          4.8907148288       -1.3253036837        1.4997634555
 H          3.9141351471        2.8713725655       -1.1014173512
 H          1.9009622772        4.1026015653       -0.9913557738
 H         -0.4757004231        4.1503546213       -0.3289102303
 H         -1.5233928460        2.1560701060        0.6721657694
 C         -0.4375635146       -0.2327176215        1.1784678265
 H         -0.6896175246        0.0121912817        2.2215452117
 C          0.4081557648       -1.4886246301        1.1647883720
 C          1.4207975335       -1.7312093154        2.2425264991
 C          0.1603793646       -2.5403901200        2.2026095760
 H          0.2223598408       -3.5776987437        1.9104945804
 H         -0.6029966382       -2.3387641468        2.9398864709
 H          2.3483907079       -2.2137456751        1.9743620604
 H          1.5242090390       -0.9798917589        3.0111042723
 H          0.6419638955       -1.8213529036        0.1593697261
 O         -2.9730769374       -0.2351437544        2.4995261094
