  62
        -98.93430454
 C         -2.5472528129       -1.3946905848        0.2557448032
 C         -2.7617368788       -0.4839705779       -0.8059055335
 C         -3.6075540402        0.6864361275       -0.5034707033
 C         -4.1194406232        0.8406228952        0.7286413843
 C         -5.0352693019        1.9238782060        1.2411683626
 C         -4.7258189816        3.3699699365        0.8312659348
 C         -3.2335888438        3.6932854892        0.6662712749
 H         -2.9998946452        4.5947101185        1.2359627089
 H         -2.6236235626        2.8855651015        1.0761167159
 C         -2.8326534379        3.9438440980       -0.7894822883
 H         -3.5945339300        4.5682161316       -1.2615354865
 H         -1.8939526665        4.5036586157       -0.8024903740
 C         -2.6180145529        2.6894541796       -1.6352145977
 H         -1.7132514227        2.1738337179       -1.2985021699
 H         -2.4390695583        3.0057923563       -2.6659041040
 C         -3.7738994142        1.6747049668       -1.6220357432
 H         -4.7369498254        2.1768747805       -1.5768124141
 H         -3.7243955632        1.0961854227       -2.5484634227
 H         -5.2436865696        3.6060560374       -0.0972678532
 H         -5.1532602082        4.0135066576        1.6019235744
 H         -6.0562817032        1.6770241896        0.9358542344
 H         -4.9945297568        1.8359752790        2.3294735497
 O         -3.8808611690       -0.0570019241        1.7261167195
 C         -3.0913246254       -1.1730726802        1.5236797904
 O         -2.9564397717       -1.8925147457        2.5334333426
 H         -0.2062490137       -0.9257398792       -1.3112446017
 C          0.3649361286       -1.3681769721       -0.5077160760
 C         -0.2455108785       -2.3005982214        0.3213884094
 C          0.4959703213       -2.8544612758        1.3573886291
 C          1.8149128968       -2.4825038472        1.5551120339
 C          2.4182617639       -1.5529471958        0.7270123448
 C          1.6828500802       -0.9896327157       -0.3079098993
 N          2.2859277937       -0.0301109144       -1.1487016081
 S          2.8092273819        1.3755645484       -0.3846718756
 O          2.0328258033        1.6481630525        0.8042838187
 O          2.8029281638        2.3985621867       -1.4074404669
 C          4.4938040584        1.0023450546        0.0541193731
 C          4.8869551369        1.0356854443        1.3774930337
 C          6.2031483961        0.7349411467        1.6928040066
 C          7.0971376110        0.4084464623        0.6845157303
 C          6.6867904173        0.3823975683       -0.6402834054
 C          5.3729910281        0.6828629593       -0.9622854507
 H          5.0129644358        0.6784015524       -1.9775239753
 H          7.3850624866        0.1283562277       -1.4213629759
 H          8.1199285300        0.1729440152        0.9329655372
 H          6.5238370941        0.7548624112        2.7220053626
 H          4.1542139669        1.2884647604        2.1272888720
 H          1.7032920027        0.2123331767       -1.9388015180
 H          3.4437198248       -1.2573760174        0.8782846816
 H          2.3786043863       -2.9196053744        2.3650752208
 H          0.0251762984       -3.5649026671        2.0212000519
 C         -1.6977001421       -2.6506520384        0.1221856566
 H         -2.0043166089       -3.2899036687        0.9642543302
 C         -1.9760661691       -3.4186247901       -1.1644668026
 C         -0.9333817232       -3.7190249692       -2.1963892531
 C         -1.4516936812       -4.8159025017       -1.3194835907
 H         -2.0963452444       -5.5678386370       -1.7485234707
 H         -0.7968307904       -5.1844668726       -0.5441000843
 H         -1.2364913954       -3.6932833890       -3.2321737240
 H          0.0729017753       -3.3684034661       -2.0291932396
 H         -2.9771030451       -3.2339492861       -1.5394961984
 O         -2.2895529878       -0.6224246722       -1.9649838087
