  62
        -98.93954821
 C          2.4785862658        1.0517601812        0.3725309380
 C          2.4922832109       -0.1403114774        1.1443850574
 C          3.6330790004       -1.0419778646        0.9409756940
 C          4.5984909050       -0.6900961258        0.0726818107
 C          5.7987424466       -1.5250290171       -0.2657757175
 C          5.5214167606       -2.4360103781       -1.4695188093
 C          4.2170404980       -3.2253960175       -1.3580447569
 H          3.3742596788       -2.5303879080       -1.3865250095
 H          4.1416278974       -3.8570645251       -2.2457808046
 C          4.1090282148       -4.0979064415       -0.0996528201
 H          3.7271753177       -5.0800316979       -0.3860748935
 H          5.0984584753       -4.2481996356        0.3336866526
 C          3.1654826648       -3.5506733104        0.9734933595
 H          2.9937073391       -4.3403200897        1.7101031044
 H          2.1978098930       -3.3082804103        0.5252964713
 C          3.6649835462       -2.3167865908        1.7360063968
 H          2.9935661717       -2.1570283876        2.5849787642
 H          4.6690003092       -2.5046730357        2.1224511615
 H          5.4705385598       -1.8169283931       -2.3679649959
 H          6.3587372963       -3.1274243048       -1.5791916842
 H          6.6242793632       -0.8548225653       -0.5107688954
 H          6.0731822439       -2.1231884923        0.6008724271
 O          4.5639070547        0.4650181455       -0.6343158071
 C          3.5065722997        1.3571965402       -0.5203942438
 O          3.6265905752        2.3562751794       -1.2555057748
 H         -1.2174696968        1.0316534528        0.8285694997
 C         -0.9957861614        1.3192339426       -0.1883973846
 C          0.2599131413        1.8158089079       -0.5091260719
 C          0.5278940845        2.1613130091       -1.8299072108
 C         -0.4424300645        2.0040949167       -2.8022688618
 C         -1.6915360496        1.5037184670       -2.4803270695
 C         -1.9722047504        1.1614419064       -1.1623837532
 N         -3.2516386029        0.6994311200       -0.8081740265
 S         -3.4195881627       -0.4471769703        0.4190021428
 O         -3.2531232119        0.2060308446        1.6924982933
 O         -2.5704965349       -1.5880407979        0.1564437155
 C         -5.1345761872       -0.8805915271        0.1935676492
 C         -5.4681642270       -2.0632739523       -0.4381239594
 C         -6.8074184632       -2.3672584112       -0.6279135066
 C         -7.7842553396       -1.4868113017       -0.1882367052
 C         -7.4338530194       -0.3034526726        0.4452277892
 C         -6.0972460604        0.0055616983        0.6396513623
 H         -5.7772089425        0.9077349237        1.1341725673
 H         -8.1961827329        0.3773088779        0.7881329765
 H         -8.8253699995       -1.7255047959       -0.3377048311
 H         -7.0827910503       -3.2878408830       -1.1168039270
 H         -4.6744280002       -2.7198606418       -0.7567019948
 H         -3.8068814749        0.4461759805       -1.6147808424
 H         -2.4461929739        1.3820415945       -3.2426165696
 H         -0.2217316581        2.2706690367       -3.8249723771
 H          1.5063179356        2.5365117345       -2.0867192622
 C          1.2950807658        1.9821315250        0.5785284797
 H          0.8350091769        1.6510708625        1.5202964710
 C          1.6869645008        3.4398010030        0.7262896849
 C          0.7315556649        4.3778106235        1.3983483110
 C          2.0015951405        3.9796754084        2.0873679209
 H          2.7910849845        4.7100480447        2.1811168157
 H          1.9364375855        3.2971800781        2.9226223694
 H          0.6458346476        5.3844172308        1.0192829873
 H         -0.1958018307        3.9644904328        1.7667003337
 H          2.2668460532        3.8178800697       -0.1050961780
 O          1.5926216439       -0.4311118401        1.9799044931
