  62
        -98.93781595
 C         -1.2174370061       -1.4624589734        0.6123132585
 C         -2.0272721717       -1.0612099314       -0.4772072479
 C         -3.0798541848       -0.0708208863       -0.1843922564
 C         -3.1896679957        0.4422927660        1.0541723849
 C         -4.1747709851        1.4360120062        1.6320491154
 C         -4.9700806246        2.3651846876        0.7181394585
 C         -4.1296503567        3.3638153461       -0.0761902138
 H         -4.8011262320        3.9230083396       -0.7320593259
 H         -3.6764561437        4.0740999902        0.6201833214
 C         -3.0036375020        2.7668087320       -0.9184417430
 H         -2.2324505568        2.3450634427       -0.2687426584
 H         -2.5275037250        3.5855205538       -1.4661494142
 C         -3.4331481302        1.7136392304       -1.9392078053
 H         -2.5655820351        1.5053680982       -2.5715747680
 H         -4.2231590547        2.1194892013       -2.5745089578
 C         -3.9095808830        0.3714585817       -1.3540959114
 H         -4.9630989285        0.4047284463       -1.0863698500
 H         -3.7882700366       -0.3929525092       -2.1270695036
 H         -5.6370274355        2.9397779987        1.3669207273
 H         -5.6012738809        1.7890450124        0.0479355146
 H         -3.5979390539        2.0406147732        2.3391165320
 H         -4.8829906621        0.8501700250        2.2290493651
 O         -2.3638351851        0.0498055083        2.0674135613
 C         -1.3474509864       -0.8670569355        1.8670716558
 O         -0.6305089972       -1.0608575293        2.8706381708
 O         -1.8922340583       -1.4995133753       -1.6484853599
 C         -0.0414264751       -2.4062537555        0.4279145343
 C          0.7991880581       -1.9358042801       -0.7359203654
 C          1.3304173829       -2.7684892510       -1.7113663321
 C          2.1079972333       -2.2404330797       -2.7286586409
 C          2.3837254759       -0.8866018615       -2.7904003043
 C          1.8524555036       -0.0444127922       -1.8194178583
 C          1.0764615897       -0.5770199132       -0.8055121034
 H          0.6436613848        0.0874734679       -0.0740989347
 N          2.0823563571        1.3383107119       -1.8432359341
 S          2.1333956737        2.2117221172       -0.4222124158
 O          0.8121337400        2.3670778383        0.1332345771
 O          2.8102478473        3.4381000772       -0.7882280452
 C          3.1767806060        1.2579644398        0.6670121053
 C          4.5109751335        1.1430777592        0.3253240612
 C          5.3472568988        0.3803359567        1.1228984800
 C          4.8371132284       -0.2577284321        2.2438016522
 C          3.4982832523       -0.1285035032        2.5772500116
 C          2.6573508727        0.6369254889        1.7839681166
 H          1.6106591134        0.7479065761        2.0234413817
 H          3.0923749246       -0.6220921050        3.4461513470
 H          5.4852537057       -0.8568320000        2.8636224543
 H          6.3902824537        0.2829166446        0.8686717430
 H          4.8722617269        1.6636440120       -0.5465380245
 H          2.7541487752        1.6599297032       -2.5232880613
 H          2.9872998046       -0.4809410531       -3.5874978355
 H          2.5077174041       -2.8963243074       -3.4871116066
 H          1.1203408159       -3.8251302369       -1.6907717130
 H          0.5662768781       -2.2697394161        1.3390063750
 C         -0.4005059947       -3.8837801059        0.3704768557
 C         -1.7184341965       -4.3845329102        0.8800343695
 C         -1.4173502355       -4.4267815573       -0.5864878053
 H         -1.2294836817       -5.3883960935       -1.0416783069
 H         -1.9132149858       -3.7214459812       -1.2336145975
 H         -1.7354488766       -5.3118331410        1.4332252252
 H         -2.4293004283       -3.6512623496        1.2336757620
 H          0.4574862241       -4.5165854184        0.5755684220
