  62
        -98.94638958
 C         -1.5862210301       -1.0772193201        0.0459543795
 C         -2.6606605901       -0.8287598002        0.9370380396
 C         -3.3856768501        0.4327746998        0.7395641698
 C         -2.9725881401        1.2848316999       -0.2162019802
 C         -3.6396247801        2.5871331600       -0.5493398900
 C         -4.7003617901        2.4030270501       -1.6438404600
 C         -5.6671708301        1.2487201501       -1.3796802901
 H         -6.3870962302        1.2331860302       -2.2008788201
 H         -5.1168847102        0.3057626901       -1.4180190602
 C         -6.4180529801        1.3423362800       -0.0440206301
 H         -7.4705384001        1.1079570900       -0.2171701900
 H         -6.3727718400        2.3636173499        0.3359045500
 C         -5.9187705201        0.3781024599        1.0337654298
 H         -6.6478846800        0.3723218598        1.8483827399
 H         -5.8761708101       -0.6354749701        0.6269056097
 C         -4.5519700600        0.7108572898        1.6454188898
 H         -4.5424947800        1.7498723797        1.9806776199
 H         -4.4131920300        0.0670287897        2.5188276098
 H         -4.1915409501        2.2124160602       -2.5916650500
 H         -5.2613288001        3.3343078601       -1.7413244599
 H         -4.0976796300        2.9951126999        0.3494442500
 H         -2.8805727701        3.2843350000       -0.9078103800
 O         -1.9165884801        1.0291002500       -1.0282689802
 C         -1.2093130301       -0.1621887801       -0.9369501604
 O         -0.2933921902       -0.2691881100       -1.7740466804
 H          1.5147746498       -2.0664223301       -1.2359531207
 C          1.6457815198       -1.8202375102       -0.1945904706
 C          0.5882630499       -1.9621363203        0.6893938894
 C          0.7840395999       -1.6164562004        2.0241262094
 C          2.0067193499       -1.1415231905        2.4598472194
 C          3.0535025899       -0.9756645904        1.5689002294
 C          2.8621139499       -1.3064801603        0.2344649994
 N          3.8991745698       -1.0839298502       -0.6897916606
 S          4.6668336399        0.4013705898       -0.6054249705
 O          5.0900752398        0.6935269999       -1.9577012305
 O          5.7259418799        0.3336602596        0.3725650494
 C          3.4396493699        1.5818260097       -0.0624958504
 C          2.2215392099        1.6375269098       -0.7097971803
 C          1.2774217099        2.5560542298       -0.2798601002
 C          1.5645099800        3.4042835897        0.7778495299
 C          2.7958424300        3.3416637496        1.4119223298
 C          3.7418378600        2.4211212496        0.9914115897
 H          4.7069616100        2.3307378196        1.4631363797
 H          3.0184014501        4.0026084495        2.2341049099
 H          0.8233024400        4.1147920897        1.1088032100
 H          0.3179825199        2.5862971199       -0.7725169302
 H          1.9931960999        0.9658015899       -1.5221439904
 H          3.6347829798       -1.2914119001       -1.6423387107
 H          4.0091419499       -0.5887157805        1.8842897094
 H          2.1450118300       -0.8845494606        3.4988718294
 H         -0.0435590501       -1.7109388804        2.7131249094
 C         -0.7898020702       -2.3602411202        0.2249604294
 H         -1.2878169402       -2.9037414903        1.0386048994
 C         -0.8028160502       -3.2220021401       -1.0193549607
 C         -0.3566504403       -4.6498539001       -0.9280529709
 C         -1.8057816003       -4.3289716400       -1.1336879608
 H         -2.2465407303       -4.5264821399       -2.0994700308
 H         -2.4847006302       -4.4762999901       -0.3066318108
 H          0.1991235697       -5.0717825000       -1.7515443509
 H         -0.0499878402       -5.0134985202        0.0409375191
 H         -0.5703939902       -2.6751821900       -1.9252136307
 O         -2.9959948801       -1.6256933903        1.8528857395
