  62
        -98.94470191
 C          1.8213130734       -0.0906953432       -0.1747155857
 C          2.8591537091       -0.8165094952       -0.8068819690
 C          4.1900120663       -0.1964406959       -0.7728282430
 C          4.3409122799        1.0031711571       -0.1820471821
 C          5.6487374925        1.7232704351       -0.0285803194
 C          6.3305002612        1.3584528474        1.2975822961
 C          6.4070677340       -0.1457552332        1.5594016350
 H          6.9338752833       -0.2844417321        2.5060561971
 H          5.3955685859       -0.5355518174        1.6949575694
 C          7.1152958808       -0.9465797077        0.4577349452
 H          7.7145298859       -0.2767536904       -0.1600434107
 H          7.8012045737       -1.6553181269        0.9265402210
 C          6.1782922632       -1.7594055941       -0.4375788867
 H          5.5116515703       -2.3632504656        0.1832025806
 H          6.7868544119       -2.4477651175       -1.0300213054
 C          5.3210641130       -0.9478503787       -1.4170462620
 H          5.9579496026       -0.2705334776       -1.9894761012
 H          4.8548611110       -1.6520798637       -2.1123034409
 H          7.3368021049        1.7813459800        1.2963222552
 H          5.7690287579        1.8197476550        2.1134189658
 H          6.2979614356        1.4701120948       -0.8644677020
 H          5.4537669139        2.7969115150       -0.0432945712
 O          3.3149070072        1.6827314856        0.3912937718
 C          2.0324769971        1.1526745360        0.4208675439
 O          1.1927417534        1.8742413227        0.9913713014
 H         -1.9385680416        0.4043643425        0.8271332748
 C         -1.7004987232        0.7103772405       -0.1775642954
 C         -0.5498937958        0.2580008684       -0.8028182153
 C         -0.2758251646        0.6966171509       -2.0970104336
 C         -1.1178960191        1.5833797947       -2.7369055882
 C         -2.2602323620        2.0438282259       -2.1050086497
 C         -2.5476028977        1.6068458053       -0.8181658013
 N         -3.6940632735        2.0641097567       -0.1569923452
 S         -4.5143963160        1.1063651414        0.9286592547
 O         -5.8467814104        1.6722579642        0.9659918611
 O         -3.8245279540        1.0524854591        2.1930359420
 C         -4.5731388351       -0.5235257776        0.2019973278
 C         -4.8781657376       -0.6563434842       -1.1382933104
 C         -4.9354006158       -1.9260872229       -1.6895586602
 C         -4.6950372144       -3.0372224291       -0.8958524182
 C         -4.4000157795       -2.8883968596        0.4500258899
 C         -4.3378559857       -1.6201401203        1.0050774254
 H         -4.1056955456       -1.4571783521        2.0450834497
 H         -4.2148451110       -3.7523398902        1.0681075442
 H         -4.7384598207       -4.0244101714       -1.3282374867
 H         -5.1660628206       -2.0449207069       -2.7359568835
 H         -5.0660990946        0.2214674440       -1.7343005737
 H         -4.3090096730        2.6498545457       -0.7009196865
 H         -2.9158759332        2.7454196103       -2.5977937219
 H         -0.8866582572        1.9198941003       -3.7362604949
 H          0.6187980539        0.3389923349       -2.5882931002
 C          0.4243933607       -0.6861732430       -0.1461472195
 H          0.4849403637       -1.5980825933       -0.7586101506
 C          0.0515515885       -1.0759176556        1.2678588986
 C         -0.9106111937       -2.1978610000        1.5125774107
 C          0.5466493770       -2.3831292791        1.8081015920
 H          0.8646975786       -2.4284204964        2.8390014621
 H          1.1300718271       -3.0032657820        1.1432626633
 H         -1.3238015866       -2.6987133508        0.6503512150
 H         -1.5934109921       -2.1120748793        2.3439739716
 H          0.0340472082       -0.2295232352        1.9462469012
 O          2.6790633820       -1.9264737792       -1.3760128680
