  62
        -98.94487972
 C         -1.9310260999       -0.2058347902        0.0981156203
 C         -2.9766776000       -1.0043951097        0.6215728909
 C         -4.2744718499       -0.3385108195        0.7754059705
 C         -4.3976481399        0.9631781102        0.4579684994
 C         -5.6494359099        1.7889644304        0.5816679988
 C         -6.6011713599        1.6605873494       -0.6156978811
 C         -7.3530782600        0.3322860994       -0.7096859600
 H         -7.8432634699        0.1256859102        0.2422027602
 H         -8.1371433000        0.4608909388       -1.4585762400
 C         -6.4786279000       -0.8637190810       -1.1115498990
 H         -6.9885099301       -1.4441637315       -1.8838169886
 H         -5.5448684400       -0.5019009813       -1.5483341094
 C         -6.1504804700       -1.8225960101        0.0329732117
 H         -7.0686775500       -2.2932316897        0.3912380521
 H         -5.4983614701       -2.6087340404       -0.3559292477
 C         -5.4417085999       -1.1650011591        1.2243701512
 H         -6.1452121099       -0.5553153187        1.7907532807
 H         -5.0590213700       -1.9553640686        1.8746519218
 H         -6.0311341099        1.8229190687       -1.5335117412
 H         -7.3362306499        2.4647591995       -0.5351731717
 H         -6.1768333198        1.5217475911        1.4977882990
 H         -5.3281088698        2.8301296004        0.6558089580
 O         -3.3588272499        1.7055060298       -0.0094763712
 C         -2.1087385099        1.1398070396       -0.2228476308
 O         -1.2644648399        1.9295144292       -0.6864117515
 H          1.6589217700        0.6092637089       -0.9308408105
 C          1.5288533501        0.5712471097        0.1369250395
 C          0.4647914201       -0.1143680298        0.6992707601
 C          0.3255083001       -0.1110937887        2.0859820901
 C          1.2206455502        0.5719899619        2.8845600495
 C          2.2806271002        1.2596749914        2.3183933689
 C          2.4301442501        1.2625885103        0.9373926589
 N          3.4829523201        1.9737502698        0.3398264983
 S          4.3924601301        1.3026404588       -0.8896110412
 O          5.5434402501        2.1711718686       -1.0014895019
 O          3.5981244500        1.1389000779       -2.0794001610
 C          4.8951202600       -0.2847714007       -0.2508229099
 C          6.0137402801       -0.3410287501        0.5580695501
 C          6.3800215300       -1.5559601297        1.1134958811
 C          5.6191683600       -2.6872955699        0.8596476520
 C          4.4988158699       -2.6137342205        0.0466693420
 C          4.1292346600       -1.4018651709       -0.5157811590
 H          3.2674404300       -1.3082918414       -1.1553817090
 H          3.9091947699       -3.4944767406       -0.1520376873
 H          5.9019259400       -3.6327497895        1.2949855427
 H          7.2535506601       -1.6171325092        1.7423568211
 H          6.5820449001        0.5604021200        0.7209359894
 H          4.0759118302        2.4655358603        0.9921959379
 H          2.9773539602        1.8019980319        2.9394230285
 H          1.0961965302        0.5694699828        3.9569062295
 H         -0.5062645199       -0.6443196683        2.5257669006
 C         -0.5692319300       -0.8425356204       -0.1215274293
 H         -0.6636354000       -1.8653471701        0.2716695515
 C         -0.2490638000       -0.9189137516       -1.5986703592
 C          0.6731598999       -1.9830091620       -2.1110988284
 C         -0.7952707401       -2.0600461322       -2.4013172683
 H         -1.1358909001       -1.8658089430       -3.4073642484
 H         -1.3822780601       -2.7996250318       -1.8764605877
 H          1.3453912999       -1.7357008527       -2.9196740786
 H          1.0773246199       -2.6791448615       -1.3914475079
 H         -0.2221508700        0.0536816680       -2.0777491200
 O         -2.8302178800       -2.2123362595        0.9484226519
