  62
        -98.94298056
 C          2.6751098703        1.1987243106        0.1254093294
 C          2.7007629802        0.1964298604       -0.8737238204
 C          3.9050904202       -0.6462850495       -0.9001495904
 C          4.8955524303       -0.4101081293       -0.0204797806
 C          6.1499760504       -1.2254061392        0.0979419994
 C          5.9769830806       -2.3646476090        1.1122808996
 C          4.7073391906       -3.1902643791        0.9037027599
 H          3.8358789606       -2.5614939491        1.1005590199
 H          4.7079558607       -3.9824193790        1.6556173601
 C          4.5762819305       -3.8117839694       -0.4937872199
 H          4.2547498005       -4.8497887094       -0.3860331497
 H          5.5492157604       -3.8237581394       -0.9864361800
 C          3.5565594803       -3.1220500596       -1.4021236499
 H          2.6038268804       -3.0224678296       -0.8756655598
 H          3.3853998802       -3.7646828898       -2.2698343698
 C          3.9606658802       -1.7395420397       -1.9296930202
 H          3.2419982301       -1.4568237399       -2.7044495902
 H          4.9523060601       -1.7933397497       -2.3835289904
 H          5.9435655507       -1.9327429188        2.1152607295
 H          6.8508904106       -3.0158642490        1.0521691096
 H          6.4080153403       -1.6301123894       -0.8786700806
 H          6.9553630504       -0.5704423791        0.4345007192
 O          4.8445517704        0.5807320209        0.9068626292
 C          3.7313242804        1.3975597608        1.0138435892
 O          3.8001854504        2.2483854410        1.9243077490
 H         -0.9685376199        2.1993432102       -1.0537801204
 C         -0.9361389798        1.4556823703       -0.2727738602
 C          0.2207512903        1.2808881005        0.4688243497
 C          0.2230972205        0.3200751007        1.4771130698
 C         -0.8940347594       -0.4549858793        1.7185752001
 C         -2.0415949095       -0.2899995795        0.9620216902
 C         -2.0611482897        0.6738709603       -0.0353437499
 N         -3.2166651198        0.8426142001       -0.8130788198
 S         -4.7145810497        0.8994197702       -0.0649172396
 O         -5.5673768799        1.6147953700       -0.9888848497
 O         -4.6199226496        1.4412493704        1.2708498402
 C         -5.2304659796       -0.8035140598       -0.0000007393
 C         -5.6394492595       -1.3531098096        1.1991756409
 C         -6.0476315694       -2.6776782296        1.2250378412
 C         -6.0407738395       -3.4246355999        0.0571179313
 C         -5.6301700097       -2.8567657001       -1.1398712088
 C         -5.2220751097       -1.5329989701       -1.1726763691
 H         -4.8977840699       -1.0558938702       -2.0824106592
 H         -5.6255195098       -3.4410987202       -2.0459286187
 H         -6.3572277494       -4.4555205399        0.0796600516
 H         -6.3676606092       -3.1207576295        2.1544497913
 H         -5.6223320694       -0.7363183795        2.0837396608
 H         -3.1341690100        1.5459087700       -1.5323056300
 H         -2.9149308595       -0.8948555995        1.1427717605
 H         -0.8725774093       -1.1987471591        2.5008779403
 H          1.1197520706        0.1892371509        2.0684906798
 C          1.4653905902        2.1069382006        0.2511741793
 H          1.6313480703        2.7122368208        1.1545984292
 C          1.3868915900        3.0333114603       -0.9444772808
 C          0.7359219100        4.3771308103       -0.8170913710
 C          2.2250959400        4.2747800304       -0.9506204012
 H          2.6832587298        4.5838880802       -1.8780883613
 H          2.8338604101        4.4649326506       -0.0785422913
 H          0.3303214501        4.6475026305        0.1464142990
 H          0.1736039098        4.7619563101       -1.6549405610
 H          1.2816846899        2.4973640702       -1.8810209407
 O          1.7694980801        0.0143632202       -1.7004128403
