  62
        -98.94487043
 C          2.6538233826        0.3136543670       -0.0122050222
 C          2.4490476945        1.4237646561       -0.8646075828
 C          1.7766449751        2.5784399565       -0.2618799162
 C          1.4058080351        2.5332700444        1.0309708086
 C          0.6641065279        3.6101891268        1.7743977041
 C         -0.8555325679        3.5478339807        1.5609741149
 C         -1.3398096597        4.0510401516        0.1996531155
 H         -2.4196016188        4.1937629233        0.2778113171
 H         -0.8959767747        5.0256003585       -0.0081557382
 C         -1.0521659395        3.0897632034       -0.9624807502
 H         -0.8454136225        2.0950802344       -0.5581480724
 H         -1.9415327962        3.0041859246       -1.5926343220
 C          0.0990492150        3.5180473079       -1.8734356523
 H          0.2469797058        2.7408887363       -2.6280651426
 H         -0.1696132472        4.4420968761       -2.3906892191
 C          1.4355540287        3.7355445427       -1.1528422589
 H          2.2213832397        3.8148303464       -1.9084219258
 H          1.4076156565        4.6606707999       -0.5780493001
 H         -1.1805039433        2.5131413340        1.7016765216
 H         -1.3214037996        4.1564766480        2.3397096657
 H          0.8708921093        3.4557876692        2.8354785624
 H          1.0394258483        4.5921247314        1.4840868466
 O          1.6757170091        1.4711811475        1.8342448593
 C          2.2496436537        0.3184044503        1.3241020055
 O          2.3662337623       -0.6076417621        2.1505427910
 O          2.7892795413        1.4374884214       -2.0797666717
 C          3.1728953542       -0.9847548424       -0.6084574306
 C          2.0671189661       -2.0054398906       -0.4821633233
 C          2.2291634069       -3.2775193054        0.0488724285
 C          1.1333092304       -4.1029312898        0.2435134458
 C         -0.1441502747       -3.6769839545       -0.0729488819
 C         -0.3090940641       -2.4197534492       -0.6348939558
 C          0.7885740026       -1.6088628958       -0.8557876344
 H          0.6428822388       -0.6213832209       -1.2781576422
 N         -1.6243872795       -1.9326955711       -0.8950744264
 S         -2.1943542345       -1.1507807145        0.5024872833
 O         -1.4401516268        0.0605678523        0.7430953240
 O         -2.2183435977       -2.1200689141        1.5679596302
 C         -3.8613007737       -0.7447357063        0.0160335172
 C         -4.7721579810       -1.7760275212       -0.1103278761
 C         -6.0626527594       -1.4822505044       -0.5198086513
 C         -6.4182422860       -0.1698668578       -0.7952708077
 C         -5.4930382851        0.8540382427       -0.6624059934
 C         -4.1993872053        0.5665419052       -0.2548055782
 H         -3.4472777346        1.3300570149       -0.1344251057
 H         -5.7719823333        1.8735926965       -0.8747128167
 H         -7.4234489866        0.0566170889       -1.1139429660
 H         -6.7854973282       -2.2752774968       -0.6233016663
 H         -4.4506181204       -2.7776545510        0.1210986957
 H         -1.6014204759       -1.2302300609       -1.6259412101
 H         -1.0095692218       -4.2873486411        0.1255602636
 H          1.2757323618       -5.0827531493        0.6735120537
 H          3.2116614351       -3.6141844313        0.3376507002
 H          3.3412070821       -0.7741720709       -1.6751490922
 C          4.4792969234       -1.4133275921        0.0204875376
 C          5.4372781528       -2.2725252680       -0.7484632466
 C          5.7589386410       -0.8309120860       -0.4978100422
 H          6.5376743102       -0.5889778963        0.2095543021
 H          5.6890172357       -0.1383374014       -1.3238193990
 H          5.9999212439       -3.0222575354       -0.2132064411
 H          5.1558827089       -2.5618793725       -1.7496084295
 H          4.3942760122       -1.5662066856        1.0903788460
