  62
        -98.94287662
 C          2.4946995419        0.2033800959       -0.2392001650
 C          2.3232250593        1.4065845949       -0.9677891184
 C          1.7493609475        2.5359898577       -0.2312576531
 C          1.4145607325        2.3837262374        1.0624455798
 C          0.7856487393        3.4296025614        1.9420857388
 C         -0.7398560128        3.5079147947        1.7869851736
 C         -1.2270536785        4.1805744284        0.5024301774
 H         -2.2900895564        4.3907629022        0.6362661236
 H         -0.7170113001        5.1367192902        0.3764508647
 C         -1.0515291143        3.3257467012       -0.7603355676
 H         -0.9070782596        2.2826237347       -0.4689166884
 H         -1.9670682882        3.3702731677       -1.3555625342
 C          0.0980061702        3.7602934364       -1.6703649764
 H         -0.1134092043        4.7509095960       -2.0802908486
 H          0.1594354362        3.0556590723       -2.5037076207
 C          1.4707466973        3.8007280542       -0.9871978145
 H          2.2351841742        3.8984947583       -1.7624141163
 H          1.5349099235        4.6611489049       -0.3213845817
 H         -1.1282805927        4.0698446996        2.6400552838
 H         -1.1437457946        2.4929647000        1.8398481814
 H          1.2288874201        4.4049077811        1.7375702589
 H          1.0147464340        3.1499901117        2.9727700584
 O          1.6268576984        1.2262559137        1.7396167197
 C          2.1109498787        0.0955693135        1.0997151138
 O          2.1710113706       -0.9098091913        1.8352846867
 O          2.6220693992        1.5241653802       -2.1876902775
 C          2.9372496757       -1.0288236503       -1.0119650108
 C          1.9691874751       -2.1482047244       -0.7172096934
 C          2.3412245083       -3.4314100736       -0.3432266167
 C          1.3764355186       -4.3701668197       -0.0168449856
 C          0.0348886565       -4.0380554842       -0.0165650713
 C         -0.3474250921       -2.7564611354       -0.3971908078
 C          0.6142571342       -1.8459777966       -0.7943810659
 H          0.3097727425       -0.8561640791       -1.1002425896
 N         -1.7034272943       -2.3554818234       -0.3862588638
 S         -2.1101460966       -1.0512178165        0.6176418223
 O         -1.2160329028        0.0529749417        0.3997494056
 O         -2.2414997575       -1.5269019511        1.9809748827
 C         -3.7243847706       -0.6568143016       -0.0272875212
 C         -4.8452591495       -1.2329768284        0.5385937854
 C         -6.0908973534       -0.9433481209        0.0041413012
 C         -6.1935002050       -0.0882832178       -1.0825894055
 C         -5.0592613086        0.4842389740       -1.6386985851
 C         -3.8112750173        0.1973486779       -1.1090478324
 H         -2.9033820582        0.6246518446       -1.5031879377
 H         -5.1415556140        1.1514283699       -2.4815878257
 H         -7.1634036058        0.1364674492       -1.4973044229
 H         -6.9746940245       -1.3839810065        0.4365336452
 H         -4.7196516990       -1.8801793912        1.3915348753
 H         -2.3114117658       -3.1248725449       -0.1311392307
 H         -0.7117591219       -4.7571824880        0.2871226811
 H          1.6775038630       -5.3653704854        0.2742804354
 H          3.3848175780       -3.6924319235       -0.2774760151
 H          2.8159368966       -0.7400672616       -2.0703244227
 C          4.3974583434       -1.4145087584       -0.8358617306
 C          5.4095972931       -0.4145679468       -0.3646942771
 C          5.0267737948       -1.5641894743        0.5156930976
 H          5.7452390481       -2.3578120492        0.6611110748
 H          4.4054545766       -1.3709329859        1.3758337119
 H          6.3865513505       -0.4177331640       -0.8244606911
 H          5.0525033251        0.5703466058       -0.1000101204
 H          4.7318449443       -2.1034726223       -1.6055988615
