  62
        -98.94448487
 C         -2.6512345506       -1.2876612439        0.1146265835
 C         -2.5653685425       -0.2916365658       -0.8882741664
 C         -3.5269182028        0.8158249911       -0.7760296753
 C         -4.4191784449        0.8208343957        0.2305130614
 C         -5.4154669483        1.9120947432        0.4917614674
 C         -4.8426626536        2.9697922274        1.4454943741
 C         -3.4511488172        3.4675528719        1.0536640486
 H         -3.1630003169        4.2324865053        1.7780292638
 H         -2.7345298771        2.6483939028        1.1525230756
 C         -3.3601844411        4.0484851850       -0.3642945393
 H         -2.7863049933        4.9767553065       -0.3259119457
 H         -4.3578136463        4.2981915245       -0.7276429025
 C         -2.6646566925        3.1397118430       -1.3799161865
 H         -2.4608947771        3.7285115216       -2.2786851087
 H         -1.6996788970        2.8131739883       -0.9811887767
 C         -3.4551278879        1.8990223395       -1.8151793226
 H         -4.4563950339        2.1948461496       -2.1349728060
 H         -2.9359243476        1.4597182378       -2.6721338054
 H         -5.5347697122        3.8129315598        1.4816081477
 H         -4.7807845525        2.5367155843        2.4463904556
 H         -6.3011564212        1.4666322852        0.9476760440
 H         -5.6973253873        2.3735071451       -0.4525513849
 O         -4.4820922913       -0.1607372655        1.1653558056
 C         -3.5930422344       -1.2205349352        1.1450990094
 O         -3.7432001652       -2.0326688594        2.0792916712
 O         -1.7402467428       -0.3153170731       -1.8402170263
 C         -1.6885363028       -2.4655933340        0.1534706337
 C         -0.3237142415       -1.9332528245        0.5167662388
 C         -0.0049661674       -1.7345920587        1.8573397004
 C          1.2070688407       -1.1772210848        2.2189440841
 C          2.1214631973       -0.7946916170        1.2523914421
 C          1.8047081859       -0.9719335565       -0.0870585277
 C          0.5974818056       -1.5561731899       -0.4476068104
 H          0.3581007942       -1.6744186396       -1.4923568661
 N          2.7188201660       -0.5680376242       -1.0763533597
 S          3.3647006608        0.9780438122       -0.9564397968
 O          2.4817743793        1.8768387750       -0.2494082659
 O          3.7170478403        1.3501263918       -2.3095076028
 C          4.8618588069        0.7299291580       -0.0226911389
 C          5.7700115307       -0.2021227576       -0.4857282176
 C          6.9424891547       -0.4046234780        0.2243321197
 C          7.1878512870        0.3264060476        1.3772617969
 C          6.2684535429        1.2616145021        1.8267975999
 C          5.0929124032        1.4680575724        1.1214200872
 H          4.3467210660        2.1804271796        1.4361792514
 H          6.4607552628        1.8298202006        2.7227464792
 H          8.1009449598        0.1666372377        1.9286546349
 H          7.6599059513       -1.1308723977       -0.1222856882
 H          5.5429733751       -0.7460607640       -1.3872624857
 H          2.3869931622       -0.7372826985       -2.0156197706
 H          3.0629833954       -0.3472844126        1.5262280618
 H          1.4420487507       -1.0338594438        3.2627484675
 H         -0.7300791678       -2.0089547510        2.6111819590
 H         -2.0330563958       -3.1064116875        0.9756488164
 C         -1.7134862887       -3.2687015542       -1.1301173642
 C         -1.0965165390       -4.6340106638       -1.1483442182
 C         -2.5859213554       -4.4834177020       -1.2144462546
 H         -3.0860396015       -4.6933604367       -2.1480802201
 H         -3.1664531378       -4.7431507747       -0.3412201067
 H         -0.5719398434       -4.9518113528       -2.0363699067
 H         -0.6644630204       -4.9961268647       -0.2277859083
 H         -1.6295993540       -2.6613369317       -2.0223121061
