  62
        -98.94469789
 C         -1.8278038413       -0.1163080950        0.1594957500
 C         -2.8664858014       -0.8605928125        0.7683900642
 C         -4.1916887865       -0.2275539424        0.7755501649
 C         -4.3364815427        0.9995695981        0.2426485681
 C         -5.6384413684        1.7384487233        0.1356677247
 C         -6.3352770440        1.4429305107       -1.1998636907
 C         -6.4283866742       -0.0465468538       -1.5313484602
 H         -6.9648470009       -0.1357052978       -2.4785301974
 H         -5.4218814472       -0.4387348804       -1.6945165109
 C         -7.1346172595       -0.8918203527       -0.4620755919
 H         -7.8312021605       -1.5715296828       -0.9573981852
 H         -7.7221261188       -0.2463420346        0.1918302577
 C         -6.1975779263       -1.7542611026        0.3855621084
 H         -5.5420554183       -2.3342273715       -0.2689268353
 H         -6.8075626093       -2.4642207117        0.9503790995
 C         -5.3242804596       -0.9976815253        1.3944444838
 H         -5.9496853876       -0.3419836621        2.0035204460
 H         -4.8590607826       -1.7379647352        2.0518738149
 H         -7.3374197502        1.8745178871       -1.1695290533
 H         -5.7765028639        1.9369715991       -1.9981957534
 H         -6.2827356624        1.4523466718        0.9646994152
 H         -5.4327112783        2.8083083235        0.1990313757
 O         -3.3094456983        1.6952301674       -0.3090709128
 C         -2.0328521858        1.1548198061       -0.3768600864
 O         -1.1922454815        1.8936861429       -0.9233538590
 O         -2.6918430439       -1.9970540936        1.2844729565
 C         -0.4363828519       -0.7221242730        0.0909948305
 C          0.5481457201        0.1857073620        0.7827484427
 C          0.2937177490        0.5496022637        2.1039657151
 C          1.1391341317        1.4079197862        2.7771767408
 C          2.2644053718        1.9155288653        2.1507011256
 C          2.5321486890        1.5533415751        0.8368292545
 C          1.6836488941        0.6823148398        0.1636240995
 H          1.9077728026        0.4333485971       -0.8598386823
 N          3.6589920100        2.0631968844        0.1789617462
 S          4.5028198691        1.1423813637       -0.9223107252
 O          5.8192005342        1.7444166428       -0.9563966193
 O          3.8095656361        1.0841481164       -2.1844087860
 C          4.6037472249       -0.4897255030       -0.2066935468
 C          5.0123030104       -0.6188095228        1.1062914535
 C          5.0956267773       -1.8855949429        1.6604787507
 C          4.7761231593       -2.9976093853        0.8961989249
 C          4.3768049210       -2.8524555492       -0.4228831998
 C          4.2886271241       -1.5868389978       -0.9806229843
 H          3.9774107524       -1.4268494463       -2.0000504575
 H          4.1309435581       -3.7171901077       -1.0183500359
 H          4.8402680232       -3.9828242011        1.3305009710
 H          5.4083522040       -2.0020084881        2.6856002910
 H          5.2621324531        0.2611224270        1.6759360091
 H          4.2641330271        2.6429051719        0.7403458543
 H          2.9213471133        2.5971529907        2.6691511272
 H          0.9231919674        1.6862181481        3.7976391103
 H         -0.5893378904        0.1574166622        2.5898308733
 H         -0.4998478318       -1.6604485305        0.6616437204
 C         -0.0797442035       -1.0499367818       -1.3427283795
 C          0.8664024331       -2.1706901911       -1.6475588554
 C         -0.5956347254       -2.3254134465       -1.9369264451
 H         -0.9235131718       -2.3200547686       -2.9657570107
 H         -1.1806213244       -2.9682600621       -1.2954273664
 H          1.5414595855       -2.0558752968       -2.4818522056
 H          1.2810025639       -2.7148117286       -0.8127439227
 H         -0.0592287835       -0.1739252846       -1.9822007888
