  62
        -98.94118121
 C          0.8248175592       -1.9894410609       -0.3409565209
 C         -0.2360887229       -1.2849812681       -0.9554686286
 C         -1.6097295735       -1.6935461934       -0.5928689758
 C         -1.7851208519       -2.6397553737        0.3458872363
 C         -3.0752434942       -3.1500911794        0.9307628564
 C         -3.7008716084       -2.1620882346        1.9279217914
 C         -3.7186549707       -0.7053969925        1.4703018414
 H         -4.1027164814       -0.1047516260        2.3003994738
 H         -2.6944391676       -0.3696321879        1.2898701974
 C         -4.5870663256       -0.4219336479        0.2463902207
 H         -5.6136120426       -0.7289782217        0.4605466365
 H         -4.5904313986        0.6608063684        0.0966394554
 C         -4.1431010478       -1.0828258696       -1.0605155445
 H         -4.4335371084       -2.1296918581       -1.0878870329
 H         -4.6833922095       -0.5898163855       -1.8737671215
 C         -2.6578062246       -0.9388307379       -1.3741288318
 H         -2.4954930947       -1.2130757522       -2.4237335814
 H         -2.3764650733        0.1172736108       -1.3039406122
 H         -3.1253406459       -2.2080795663        2.8560363279
 H         -4.7194432694       -2.4901962353        2.1448106462
 H         -3.7761544408       -3.3967038973        0.1387849771
 H         -2.8348230205       -4.0736018940        1.4625325986
 O         -0.7323635707       -3.2622089698        0.9505674637
 C          0.5737773110       -2.9669597073        0.6248994698
 O          1.4223674488       -3.6388649106        1.2490187433
 H          1.1373377253        0.6987308367       -0.2039850216
 C          2.0222471655        0.5829618315        0.3984689366
 C          2.7643925643       -0.5847985727        0.3096591032
 C          3.9123061867       -0.7056896316        1.0834005623
 C          4.2923122678        0.3140847728        1.9384750891
 C          3.5197279626        1.4552448666        2.0628639216
 C          2.3703530146        1.5829619044        1.2920047474
 N          1.5368539852        2.7080924084        1.3913352311
 S         -0.1258710527        2.4916701723        1.3239394403
 O         -0.6686895964        3.5884784061        2.1025095934
 O         -0.5142017472        1.1703417825        1.7619628022
 C         -0.5840278153        2.7540197149       -0.3761348997
 C         -1.9233678171        2.6108816182       -0.6791338732
 C         -2.3476894158        2.8287387668       -1.9797703471
 C         -1.4265787865        3.1846507126       -2.9520447440
 C         -0.0870406594        3.3292989327       -2.6302787849
 C          0.3432926328        3.1162611588       -1.3298435653
 H          1.3809069624        3.2143697568       -1.0559775902
 H          0.6285865272        3.6014230080       -3.3895829609
 H         -1.7552537474        3.3450322075       -3.9668006324
 H         -3.3900451010        2.7111218979       -2.2308944327
 H         -2.6017445222        2.3258505119        0.1106157245
 H          1.7917689845        3.3720255689        2.1079484026
 H          3.7968939265        2.2357474287        2.7551304870
 H          5.1865719922        0.2095490425        2.5340639976
 H          4.4954776482       -1.6131079185        1.0290760477
 C          2.2972886848       -1.7010839163       -0.5940555381
 H          2.8361607044       -2.6135920564       -0.3028004158
 C          2.6241093570       -1.3902252456       -2.0415780119
 C          4.0192185297       -1.6158212896       -2.5381891262
 C          2.9081815720       -2.5153363946       -2.9886030981
 H          2.5530214877       -2.4338267527       -4.0046546544
 H          2.8737009938       -3.5208062888       -2.5942174057
 H          4.4318747461       -0.9145100352       -3.2467702926
 H          4.7418325348       -2.0149936561       -1.8427030200
 H          2.0790504680       -0.5393732034       -2.4274881014
 O         -0.0816781060       -0.3418782779       -1.7780502634
