  62
        -98.94445376
 C         -2.0278199774       -1.3800966608        0.0519060582
 C         -2.3262303341       -0.4283647454       -0.9532463448
 C         -3.6839050532        0.1323298285       -0.9218796452
 C         -4.5596728003       -0.2655335253        0.0176158267
 C         -5.9790775723        0.2092109445        0.1692178581
 C         -6.1156916856        1.5246494643        0.9482520374
 C         -5.6599845586        2.7763116827        0.1970346885
 H         -6.1472705964        2.8114892621       -0.7779093306
 H         -6.0114023714        3.6381108102        0.7678904943
 C         -4.1394806619        2.8907927897        0.0191290444
 H         -3.6378667252        2.2182591863        0.7192344216
 H         -3.8187663077        3.9051530322        0.2676244187
 C         -3.6427793957        2.5929968441       -1.3956203972
 H         -4.0346780627        3.3426653412       -2.0867617966
 H         -2.5525039749        2.6715426189       -1.3979535193
 C         -4.0212187729        1.2009284880       -1.9181014510
 H         -5.0817910639        1.1685848330       -2.1659495571
 H         -3.4434782950        1.0065700041       -2.8250388935
 H         -5.5565347900        1.4373315359        1.8827935174
 H         -7.1712464568        1.6445626602        1.2028254133
 H         -6.4378306059        0.3177100666       -0.8139446793
 H         -6.5108074856       -0.5717836893        0.7169890341
 O         -4.2422264475       -1.1917748429        0.9594396630
 C         -2.9791324474       -1.7538053605        1.0084784396
 O         -2.8253068708       -2.5754714326        1.9340373449
 H          0.2889124417        0.3059373491       -0.6934419945
 C          0.7304094858        0.0215519202        0.2501601299
 C          0.3336936801       -1.1624097998        0.8558457466
 C          0.9045763780       -1.5095467797        2.0743816039
 C          1.8444459285       -0.6881738025        2.6731798650
 C          2.2343491286        0.4930762219        2.0686628374
 C          1.6664972780        0.8491583897        0.8519213220
 N          2.0675070410        2.0434043503        0.2225359011
 S          3.7178499774        2.2426506232        0.0120316588
 O          4.3019862169        2.7320832379        1.2361500223
 O          3.8623312457        3.1006195465       -1.1428389341
 C          4.3266889974        0.6020948147       -0.3360214763
 C          5.1698078366       -0.0266835409        0.5568861112
 C          5.5797709175       -1.3234910420        0.2911029463
 C          5.1368600451       -1.9669628251       -0.8537596828
 C          4.2920441269       -1.3200674529       -1.7426707295
 C          3.8797170776       -0.0237624610       -1.4829632350
 H          3.2251384426        0.5074791090       -2.1555453670
 H          3.9493656302       -1.8206601851       -2.6340733857
 H          5.4512688195       -2.9785543232       -1.0564454950
 H          6.2381893304       -1.8285109291        0.9793003184
 H          5.4866993338        0.5091482190        1.4366217527
 H          1.5734398613        2.2207096721       -0.6403721199
 H          2.9634949496        1.1470611086        2.5191712670
 H          2.2774267625       -0.9701532441        3.6206809654
 H          0.5964950496       -2.4248415857        2.5584062498
 C         -0.6758650958       -2.0648313763        0.1871826990
 H         -0.8467168321       -2.9229337677        0.8503808507
 C         -0.1353275438       -2.5806555480       -1.1336088696
 C          0.9139447492       -3.6492963104       -1.1182612312
 C         -0.4775358659       -3.9707949860       -1.5732462892
 H         -0.6518690674       -4.1502153292       -2.6235955289
 H         -1.1055438799       -4.5609148606       -0.9214016043
 H          1.2321251517       -4.0236393901       -0.1572676984
 H          1.6995007350       -3.6094957250       -1.8565411536
 H         -0.0711740411       -1.8194432106       -1.8993015477
 O         -1.5217571900       -0.0462569408       -1.8459949842
