  62
        -98.94041292
 C         -2.5268902917       -1.0717829797       -0.2457242592
 C         -2.3136994771        0.3194696993       -0.0937896927
 C         -3.4241315206        1.0739047402        0.5064668391
 C         -4.5333311583        0.4198972883        0.8966814982
 C         -5.7569025193        1.0709186790        1.4723010057
 C         -6.7626440976        1.4349736209        0.3710778817
 C         -6.1437877649        2.1899152194       -0.8052695909
 H         -5.4468440654        1.5289658654       -1.3254772910
 H         -6.9507600723        2.4207306166       -1.5039732693
 C         -5.4176986780        3.4853995240       -0.4167678443
 H         -5.7043635894        4.2715357103       -1.1184328752
 H         -5.7363265533        3.8055978314        0.5758430625
 C         -3.8910345666        3.3922346004       -0.4524168290
 H         -3.4864546646        4.4050380281       -0.3761430685
 H         -3.5712781737        2.9835702921       -1.4142405301
 C         -3.2470708310        2.5581615016        0.6625712073
 H         -2.1676415957        2.7349903530        0.6319243303
 H         -3.6197270392        2.8908729371        1.6336096330
 H         -7.5571663226        2.0371414909        0.8153881561
 H         -7.2072378091        0.5126901973       -0.0098072522
 H         -5.4630764493        1.9635749200        2.0210984987
 H         -6.2264738240        0.3689565927        2.1634609795
 O         -4.6861796930       -0.9226668523        0.7661404067
 C         -3.6941001888       -1.6990296155        0.1918987685
 O         -3.9635593133       -2.9156520141        0.1305253824
 O         -1.2569619185        0.9073779583       -0.4454231454
 C         -1.4488486956       -1.9508476049       -0.8578523606
 C         -0.2283877913       -1.9061632106        0.0297399638
 C         -0.3380471700       -2.4008550394        1.3272825551
 C          0.7351137954       -2.3499516083        2.1948685815
 C          1.9418994824       -1.8051296010        1.7897176414
 C          2.0604339830       -1.3055956512        0.5008962984
 C          0.9797223076       -1.3635767876       -0.3729569098
 H          1.0838389383       -0.9631620140       -1.3689401626
 N          3.2863350242       -0.7702008823        0.0623311888
 S          4.1666131017        0.2003098002        1.1274640500
 O          4.8223855892       -0.6532646589        2.0870134696
 O          3.3283693439        1.2415506299        1.6791449615
 C          5.3757070549        0.8896093397        0.0147227470
 C          6.5130367879        0.1566577832       -0.2665850920
 C          7.4427560783        0.6769991487       -1.1526033178
 C          7.2207238989        1.9139225077       -1.7395609163
 C          6.0747224927        2.6380784111       -1.4469188108
 C          5.1399242829        2.1228404731       -0.5625568951
 H          4.2389950239        2.6546256145       -0.3001169205
 H          5.9058294026        3.6004287314       -1.9027870736
 H          7.9463720824        2.3180541273       -2.4276330982
 H          8.3357827529        0.1182384321       -1.3816289478
 H          6.6461547375       -0.7950370687        0.2205084733
 H          3.1915844359       -0.3098170937       -0.8332478540
 H          2.7831006351       -1.7492798575        2.4612398039
 H          0.6343295731       -2.7344685699        3.1990474902
 H         -1.2839489094       -2.8178650663        1.6468385159
 H         -1.8453553330       -2.9754953060       -0.8346949462
 C         -1.1877659415       -1.5609585852       -2.2969283148
 C         -0.5397536769       -2.5402250197       -3.2277586985
 C         -1.9927943805       -2.2078881747       -3.3820249634
 H         -2.2986259048       -1.6062140274       -4.2248060383
 H         -2.7233243573       -2.9467800650       -3.0862251494
 H          0.1513396666       -2.1694410110       -3.9694509251
 H         -0.2808086017       -3.5092170162       -2.8288341817
 H         -0.9527042971       -0.5095321589       -2.4130977772
