  62
        -98.94399150
 C         -2.0181939585       -0.8318541638        0.1339664343
 C         -1.6506302642       -1.8280502394       -0.7996706806
 C         -0.6450102149       -2.8106625062       -0.3563654555
 C         -0.1546706783       -2.7219890552        0.8921152998
 C          0.9211477727       -3.5594033679        1.5269635508
 C          2.3019284825       -2.9101721935        1.3284672647
 C          3.0262859610       -3.3144645744        0.0459337552
 H          3.9313884505       -2.7060176400       -0.0212202161
 H          3.3354741227       -4.3596336828        0.1211837217
 C          2.2258366379       -3.1354062775       -1.2464394953
 H          1.7251135140       -2.1644391193       -1.2471285405
 H          2.9356927256       -3.1173370862       -2.0766811824
 C          1.2091084927       -4.2612801609       -1.4887219279
 H          1.4153131939       -5.0842085381       -0.8043379996
 H          1.3435633324       -4.6567967172       -2.4980830555
 C         -0.2634864386       -3.8483393687       -1.3763080887
 H         -0.5922511071       -3.4292156851       -2.3329806723
 H         -0.8720733484       -4.7436000045       -1.2044412142
 H          2.1735268993       -1.8246496469        1.3438040098
 H          2.9395325970       -3.1771909901        2.1737136715
 H          0.6997004912       -3.5870574590        2.5958527139
 H          0.9032115031       -4.5738253831        1.1404266076
 O         -0.5628728265       -1.7666485335        1.7721563182
 C         -1.4734271197       -0.7849265588        1.4160141763
 O         -1.7064197082        0.0461232569        2.3136230988
 O         -2.1374759227       -1.8885604308       -1.9621478410
 C         -2.9676612959        0.2726576756       -0.2977617079
 C         -2.2131621951        1.5809413233       -0.2882331961
 C         -2.6299900314        2.7134450294        0.3980100093
 C         -1.8518865988        3.8587652027        0.3912171620
 C         -0.6449878796        3.8946567280       -0.2824315392
 C         -0.2233771555        2.7699049020       -0.9840815316
 C         -1.0181616088        1.6350813863       -0.9970916914
 H         -0.6891816971        0.7680671634       -1.5519857769
 N          0.9929400987        2.7757754057       -1.6920533287
 S          2.0932737161        1.5301121180       -1.5074214065
 O          3.2680802046        1.9774317788       -2.2227920294
 O          1.5137088586        0.2856797390       -1.9389635901
 C          2.4441762594        1.4752962954        0.2380835594
 C          3.5774936478        2.0928821256        0.7299544037
 C          3.8058145639        2.0802439985        2.0966071497
 C          2.8958628864        1.4670446733        2.9455908459
 C          1.7597950298        0.8563707537        2.4371863380
 C          1.5339708629        0.8570414128        1.0702129357
 H          0.6612978952        0.3872375204        0.6444085205
 H          1.0365834470        0.3821478052        3.0828299439
 H          3.0708299867        1.4623130017        4.0098271472
 H          4.6893570985        2.5508985997        2.4968106472
 H          4.2572217217        2.5563835674        0.0333637573
 H          1.4752960805        3.6632013150       -1.6715970132
 H         -0.0332885580        4.7839975960       -0.2716303419
 H         -2.1844176872        4.7319640711        0.9314456614
 H         -3.5581554597        2.6976438484        0.9447036533
 H         -3.2331797423        0.0388845351       -1.3394659201
 C         -4.2274544493        0.2789668905        0.5398047995
 C         -5.4958218811        0.8486534924       -0.0194761202
 C         -5.3544026950       -0.6322257031        0.1595925345
 H         -5.9148761564       -1.1146450100        0.9462001044
 H         -5.2217964867       -1.2455668709       -0.7199744238
 H         -6.1587111020        1.3825709470        0.6443723727
 H         -5.4661838018        1.2420171229       -1.0243990910
 H         -4.0272454216        0.4101219172        1.5968080272
