  62
        -98.94792197
 C         -2.0576396869       -0.5410138824        0.1076971148
 C         -1.9002518239        0.4246991637        1.1339376303
 C         -2.0263583883        1.8326702126        0.7358922839
 C         -2.2867390056        2.1274063543       -0.5506992403
 C         -2.4022601355        3.5170791089       -1.1057614011
 C         -1.0498256488        4.0304463348       -1.6179028546
 C          0.0931439006        3.8797121680       -0.6137760646
 H          0.3129118959        2.8165957306       -0.4888994007
 H          0.9814014100        4.3260511049       -1.0674876104
 C         -0.1679188611        4.5265155051        0.7535796501
 H          0.7298217537        5.0686643564        1.0578072018
 H         -0.9742079289        5.2561616961        0.6681014553
 C         -0.4902100903        3.5365123676        1.8738547776
 H          0.2713974544        2.7539408567        1.8893049360
 H         -0.4326947883        4.0717966512        2.8253596113
 C         -1.8726256914        2.8749430176        1.8083373636
 H         -2.6417353054        3.6434519904        1.7045594654
 H         -2.0356933713        2.3521683422        2.7555263191
 H         -0.7808474005        3.4682638166       -2.5157896944
 H         -1.1619930704        5.0813919698       -1.8927357868
 H         -3.1090705469        3.4956360378       -1.9373906323
 H         -2.7852061319        4.1810391615       -0.3325658567
 O         -2.4508526541        1.1792254500       -1.5057611351
 C         -2.3169242020       -0.1730038255       -1.2146716616
 O         -2.4632887627       -0.9142263876       -2.2054598304
 O         -1.6673880366        0.1196918677        2.3355369069
 C         -1.8824656664       -1.9950226744        0.4980401281
 C         -0.4953105034       -2.5198006933        0.1923814388
 C         -0.0276593522       -3.6719997104        0.8189869245
 C          1.2492737346       -4.1399989955        0.5720702390
 C          2.1030296302       -3.4526042588       -0.2741879818
 C          1.6474180050       -2.3023267606       -0.9042046381
 C          0.3482275346       -1.8636529394       -0.6879462278
 H          0.0094466433       -0.9881936665       -1.2179806307
 N          2.4818374794       -1.5471152205       -1.7476418534
 S          2.5509457440        0.1116753285       -1.5110166058
 O          1.3316460513        0.7390061409       -1.9498941554
 O          3.7599410275        0.5207343455       -2.1931788654
 C          2.7562815302        0.2880250634        0.2502958443
 C          4.0302067913        0.2121603539        0.7801092276
 C          4.1875433473        0.2545808383        2.1557230600
 C          3.0736838119        0.3510524904        2.9773495929
 C          1.8019077176        0.4244153484        2.4315239832
 C          1.6416104797        0.3991373658        1.0551512183
 H          0.6622407780        0.4627542801        0.6078794574
 H          0.9221371050        0.4884491845        3.0539452536
 H          3.1949476130        0.3711573815        4.0488199977
 H          5.1756949858        0.2047699529        2.5838919452
 H          4.8677518271        0.1369825041        0.1055507504
 H          3.4124895595       -1.9246911246       -1.8570945620
 H          3.1097151294       -3.8013582510       -0.4459920311
 H          1.5951193816       -5.0377072020        1.0608498645
 H         -0.6714294343       -4.1981667633        1.5061325285
 H         -2.0002558898       -2.0144427950        1.5918264786
 C         -2.9347684551       -2.9036203915       -0.1112914916
 C         -3.4979169861       -4.0468545344        0.6764269453
 C         -4.3421246849       -2.8402090437        0.3998941278
 H         -5.1505040308       -2.9168424612       -0.3113371809
 H         -4.5433248621       -2.1608090547        1.2156512176
 H         -3.7260478528       -4.9644509533        0.1563839753
 H         -3.1497931965       -4.1867720452        1.6884853562
 H         -2.8059663007       -3.0398597500       -1.1780521824
