  62
        -98.94629567
 C          1.3569101483        1.2334991735        0.5225916526
 C          1.6439801917        0.4248620035       -0.6045899191
 C          2.3991208735       -0.8046197219       -0.3258172967
 C          2.6798239122       -1.1465232045        0.9441631346
 C          3.4041241731       -2.3886225359        1.3882985742
 C          4.9333719404       -2.2619014943        1.3571256481
 C          5.5546914983       -2.2584097586       -0.0401074093
 H          6.6317893589       -2.3824087634        0.0885641394
 H          5.1930346472       -3.1218289974       -0.5993587999
 C          5.2976134703       -0.9759689506       -0.8437833451
 H          4.9751551260       -0.1808125977       -0.1675607685
 H          6.2301740240       -0.6432748468       -1.3051236523
 C          4.2664206514       -1.1238656855       -1.9626835213
 H          4.6413854484       -1.8212784324       -2.7149040478
 H          4.1401633981       -0.1492544287       -2.4406899480
 C          2.8861313184       -1.6054491479       -1.4951761285
 H          2.1779107200       -1.4548338954       -2.3127442126
 H          2.9240218927       -2.6659403907       -1.2471836684
 H          5.2197524633       -1.3500308693        1.8863654052
 H          5.3423607839       -3.1095000763        1.9119956309
 H          3.0954711093       -2.5784209904        2.4188008351
 H          3.0987641119       -3.2352169238        0.7722870475
 O          2.2977628921       -0.3883784723        2.0075528152
 C          1.6571602072        0.8258104069        1.8223104381
 O          1.3950901663        1.4331957296        2.8821730393
 O          1.2985724853        0.7062800639       -1.7789745663
 C          0.6240676593        2.5556700411        0.3556389223
 C         -0.7900162421        2.2542802444       -0.0776205470
 C         -1.3279629785        2.6245384647       -1.3016405002
 C         -2.6163720346        2.2458421820       -1.6422017781
 C         -3.3916833504        1.4991446734       -0.7745957413
 C         -2.8639952666        1.1338220751        0.4578605893
 C         -1.5753821041        1.5105956800        0.7960406243
 H         -1.1602127139        1.2179123977        1.7528327644
 N         -3.6399621447        0.3574693441        1.3444413357
 S         -4.1937801228       -1.0971706562        0.7225655535
 O         -5.3640797426       -0.8540252344       -0.0822444560
 O         -4.3818875935       -1.9606729517        1.8669631028
 C         -2.8630301071       -1.6939965441       -0.3047103916
 C         -3.0142924230       -1.7367094130       -1.6751731976
 C         -1.9517775595       -2.1690402496       -2.4523473009
 C         -0.7623221533       -2.5446688699       -1.8491455629
 C         -0.6242080143       -2.4921083259       -0.4709080823
 C         -1.6821983376       -2.0595800193        0.3105166172
 H         -1.6064963395       -2.0119454771        1.3858722915
 H          0.3059677339       -2.7739684121       -0.0035880290
 H          0.0650171735       -2.8795650603       -2.4540913540
 H         -2.0519866241       -2.2073445789       -3.5249562669
 H         -3.9565765880       -1.4360434548       -2.1031477077
 H         -3.1848375569        0.2011017191        2.2327460715
 H         -4.3918788049        1.1876128800       -1.0287108266
 H         -3.0204945434        2.5335786128       -2.6005734702
 H         -0.7352423402        3.1962643399       -1.9958140441
 H          0.5807413817        3.0067957090        1.3571269308
 C          1.3716656362        3.4902944333       -0.5693081358
 C          1.1084609896        4.9637564773       -0.5042730711
 C          2.4043050612        4.4104128611        0.0059656475
 H          3.3042325191        4.5947049497       -0.5614223209
 H          2.5625195584        4.3786604176        1.0744978093
 H          1.1200320693        5.5318367539       -1.4218935986
 H          0.3857954567        5.3105708896        0.2189485779
 H          1.5816455457        3.0504892319       -1.5363316849
