  62
        -98.93807111
 C         -2.1825036404       -0.9110518787       -0.0133225746
 C         -2.9121070205       -0.1740628779        0.9449480161
 C         -3.7605341570        0.9236271789        0.4409483760
 C         -3.7656144874        1.1809615799       -0.8806396623
 C         -4.5746311721        2.2097403115       -1.6247070309
 C         -6.0456911931        1.7953679721       -1.7930782190
 C         -6.6938302611        1.2003621443       -0.5456433521
 H         -6.1202009210        0.3291643035       -0.2240040771
 H         -7.6896445857        0.8468715204       -0.8255992219
 C         -6.8543194364        2.1640910392        0.6276512929
 H         -7.4018686239        1.6336029715        1.4108959423
 H         -7.4651508273        3.0131733936        0.3129599293
 C         -5.5567675666        2.7000255769        1.2360917061
 H         -5.8138113026        3.1672038937        2.1914119453
 H         -5.1270694050        3.4828156627        0.6167534688
 C         -4.5083355058        1.6351084325        1.5430923151
 H         -4.9655598144        0.8476890915        2.1532816943
 H         -3.7366945753        2.0809811295        2.1831845074
 H         -6.0950749149        1.0428467031       -2.5837535790
 H         -6.6140515189        2.6672985746       -2.1209611501
 H         -4.4970565788        3.1744032111       -1.1319594064
 H         -4.1249559477        2.3048681863       -2.6154930441
 O         -3.0162518264        0.4633146737       -1.7659099409
 C         -2.2145056053       -0.5914865047       -1.3702474659
 O         -1.5932631432       -1.1457076819       -2.2957382984
 H          0.0376979330        0.2056841151        0.7428838710
 C          0.6716879166       -0.5689530853        0.3273120487
 C          0.1313078828       -1.8268432240        0.0884276246
 C          0.9616242534       -2.8131046393       -0.4275370730
 C          2.2877759547       -2.5358841791       -0.7121301191
 C          2.8149338226       -1.2777313507       -0.4890976701
 C          1.9970734595       -0.2861169071        0.0371957582
 N          2.5231827276        1.0005895276        0.2591975230
 S          3.8996922019        1.1192810580        1.2168514048
 O          3.9622748749        0.0486142636        2.1851131361
 O          3.8762527444        2.4648287964        1.7483040084
 C          5.2445953223        0.9749274797        0.0597057214
 C          6.2104505854        0.0052551760        0.2453932558
 C          7.2545373593       -0.0824287847       -0.6623273612
 C          7.3137113734        0.7963406457       -1.7331228071
 C          6.3367873071        1.7661488666       -1.9037582866
 C          5.2913814133        1.8605116849       -0.9991070439
 H          4.5144379068        2.6007977465       -1.0937053542
 H          6.3859202125        2.4476584430       -2.7377239657
 H          8.1254697698        0.7249712302       -2.4396736303
 H          8.0150266852       -0.8353482456       -0.5313638494
 H          6.1186390528       -0.6598637727        1.0890948203
 H          1.8308037870        1.6703962572        0.5625901530
 H          3.8445047132       -1.0561243304       -0.7177639674
 H          2.9189468819       -3.3113905429       -1.1182518460
 H          0.5696852790       -3.7999621265       -0.6104742524
 C         -1.3153576923       -2.0677094675        0.4452066909
 H         -1.3940377967       -2.0747686009        1.5434057144
 C         -1.8615862488       -3.3754281781       -0.0894911303
 C         -1.6836177726       -4.6456235196        0.6858116780
 C         -3.0342840942       -4.0027966378        0.6008434031
 H         -3.7963030435       -4.4745276480       -0.0011452421
 H         -3.4191021816       -3.5007867777        1.4768172481
 H         -1.1542588722       -4.5885170048        1.6250116141
 H         -1.5203973413       -5.5633955199        0.1413134943
 H         -1.8327947845       -3.4245985071       -1.1722440316
 O         -2.8634191725       -0.4194667054        2.1824908288
