  62
        -98.93389241
 C          2.3393356528        0.8840674013        0.0454757316
 C          2.5655918913       -0.1735599357        0.9532456288
 C          2.5881960401       -1.5367934221        0.3947673302
 C          2.3427771842       -1.7066848781       -0.9169392804
 C          2.2957532192       -2.9893077567       -1.7079290471
 C          1.5156239869       -4.1516427770       -1.0740781665
 C          2.4109258683       -5.3007685848       -0.6068180506
 H          3.1953879166       -5.4512389327       -1.3513185470
 H          1.8141454210       -6.2148203693       -0.5719815527
 C          3.0490082947       -5.1129470043        0.7684857732
 H          3.7659100625       -5.9245096317        0.9129676272
 H          2.2815537294       -5.2151908189        1.5387247358
 C          3.7688756961       -3.7797165375        0.9812432381
 H          4.3284547865       -3.4996100179        0.0898408308
 H          4.4956687973       -3.9178995215        1.7844724902
 C          2.8322388413       -2.6349177581        1.3942095450
 H          3.2407534679       -2.1235402527        2.2717018851
 H          1.8638964644       -3.0380098803        1.7068813310
 H          0.8303273326       -4.5419776546       -1.8284730516
 H          0.9041338428       -3.7784933239       -0.2531506913
 H          3.3193754472       -3.3035250309       -1.9267349395
 H          1.8406092518       -2.7144706867       -2.6621884133
 O          2.1128477331       -0.6560310685       -1.7559132883
 C          2.0798066812        0.6504625824       -1.3044514888
 O          1.8251262862        1.4939854915       -2.1853224926
 O          2.7363160039        0.0117505569        2.1907855760
 C          2.2305641826        2.3044148928        0.5752160897
 C          0.8069402195        2.7614779178        0.3695390328
 C          0.4454389148        3.9363659576       -0.2752530597
 C         -0.8882123139        4.2272139217       -0.5117911162
 C         -1.8869925175        3.3557399549       -0.1160777575
 C         -1.5347614262        2.1966717433        0.5581236686
 C         -0.2043301530        1.9140445883        0.8066649367
 H          0.0576184170        0.9909950466        1.3108791676
 N         -2.5509438731        1.2595038525        0.9197281791
 S         -2.6411730846        0.0278616705       -0.2435847253
 O         -1.6582462899       -0.9982837173        0.0437568397
 O         -2.5882000174        0.6360260060       -1.5482819025
 C         -4.2804882250       -0.6071535644        0.0577342659
 C         -5.3562216468        0.1158305654       -0.4205607573
 C         -6.6386283151       -0.3408558438       -0.1632647326
 C         -6.8233403930       -1.5059861910        0.5664782231
 C         -5.7339545281       -2.2210352708        1.0396510415
 C         -4.4483152568       -1.7682379615        0.7862877866
 H         -3.5720712157       -2.2955615779        1.1280322420
 H         -5.8795694630       -3.1279135504        1.6042771020
 H         -7.8223994797       -1.8601776604        0.7657274999
 H         -7.4879218812        0.2117083404       -0.5314507823
 H         -5.1612146971        1.0096280672       -0.9895510622
 H         -2.3286626116        0.8074816102        1.7986853038
 H         -2.9248166790        3.5521787015       -0.3285711290
 H         -1.1496611147        5.1371464007       -1.0302043661
 H          1.2106074972        4.6145301938       -0.6163407952
 H          2.4211721798        2.2313920608        1.6561549702
 C          3.2663247034        3.2126219167       -0.0487053123
 C          3.7285526136        4.4365744200        0.6827894083
 C          4.6425809036        3.2578007785        0.5422669764
 H          5.4867531785        3.3334657993       -0.1262881604
 H          4.8288647134        2.6458583646        1.4127191513
 H          3.9490021286        5.3254573066        0.1115587477
 H          3.2975573666        4.6301079787        1.6533062226
 H          3.1831592123        3.2577252935       -1.1284826370
