  62
        -98.93456779
 C          2.2448116149        1.2558742980        0.2943558158
 C          2.5446063246        0.2766297847       -0.6803438912
 C          3.4662702496       -0.8082341464       -0.2763927791
 C          3.9265843227       -0.8400964116        0.9870680429
 C          4.8869114644       -1.8193567725        1.6074241563
 C          6.3441900726       -1.5687200947        1.1847313961
 C          6.5415451509       -1.2631760666       -0.2978777873
 H          5.9386357042       -0.3941664438       -0.5677319700
 H          7.5895815736       -0.9886787565       -0.4435565353
 C          6.2249034010       -2.4157452178       -1.2476914170
 H          6.4796606514       -2.0843574137       -2.2576051229
 H          6.8666778816       -3.2657914333       -1.0055090775
 C          4.7719782180       -2.8945012684       -1.2573309093
 H          4.5548253492       -3.5053502697       -0.3851810413
 H          4.6494071350       -3.5449096959       -2.1285576726
 C          3.7335983860       -1.7854463345       -1.3965924448
 H          2.7637902626       -2.2460874971       -1.6234411243
 H          3.9756960569       -1.1774345804       -2.2757862385
 H          6.9384877459       -2.4409346316        1.4617162056
 H          6.7161676201       -0.7123354577        1.7522995327
 H          4.8109272564       -1.6885873146        2.6891778184
 H          4.5831872954       -2.8362101279        1.3764218976
 O          3.5813945069        0.1060539111        1.9064214172
 C          2.7527983218        1.1626942642        1.5930085504
 O          2.5448762214        1.9505126848        2.5376289128
 O          2.0811825153        0.2804149721       -1.8517305788
 C          1.3452689142        2.4547398664        0.0327599302
 C         -0.1011942921        2.0833894313        0.2346330754
 C         -0.9065705339        2.7823419233        1.1252558894
 C         -2.2260559621        2.4115924885        1.3198979227
 C         -2.7679604307        1.3411948770        0.6311005297
 C         -1.9686908450        0.6317762376       -0.2559001856
 C         -0.6477457940        1.0061583988       -0.4501200766
 H         -0.0285905193        0.4529911718       -1.1414185617
 N         -2.5091547953       -0.4583223685       -0.9645006568
 S         -3.2336513621       -1.6737141559       -0.0576548083
 O         -2.6668667150       -1.7521030260        1.2697239676
 O         -3.1381579105       -2.8673037112       -0.8696296269
 C         -4.9389172661       -1.1686847330        0.0320664834
 C         -5.6112824464       -0.9355024638       -1.1518337890
 C         -6.9398788613       -0.5452986980       -1.1007152905
 C         -7.5708015752       -0.3986096789        0.1258589561
 C         -6.8829464758       -0.6401550923        1.3051701491
 C         -5.5531223485       -1.0296984587        1.2611671009
 H         -4.9758487433       -1.2221046301        2.1515738957
 H         -7.3748891356       -0.5259469590        2.2577346524
 H         -8.6049189279       -0.0944958331        0.1631112693
 H         -7.4780250695       -0.3565102029       -2.0156225516
 H         -5.0847268446       -1.0639451663       -2.0827363942
 H         -1.8579412285       -0.8572758363       -1.6265873559
 H         -3.7939829877        1.0467908159        0.7804831679
 H         -2.8396580385        2.9617966086        2.0167376728
 H         -0.4861609654        3.6085319099        1.6798552423
 H          1.6114110785        3.1824001163        0.8154146110
 C          1.6174582246        3.1168600191       -1.3122810731
 C          0.6349013163        3.1525895636       -2.4406733276
 C          0.9216871610        4.3991292905       -1.6627082498
 H          1.4914080489        5.1874583865       -2.1306812105
 H          0.1586264475        4.7470572981       -0.9826528425
 H          1.0254814700        3.0609980126       -3.4427753169
 H         -0.3230031281        2.6765925691       -2.3033964291
 H          2.6630201242        3.0406936189       -1.5931093732
