  62
        -98.93975783
 C         -1.5062541118       -1.5209128283       -0.2030327580
 C         -1.5410832617       -0.1175437237       -0.3686182264
 C         -2.8774894231        0.5025449558       -0.4781453305
 C         -3.9653898223       -0.2875248426       -0.4158217786
 C         -5.4118379268        0.1268929857       -0.4571533971
 C         -5.8907846202        0.7297840081        0.8748995955
 C         -4.9067708162        1.6886271066        1.5413406757
 H         -5.3026338550        1.9349979563        2.5302880587
 H         -3.9543851399        1.1770720959        1.6930220997
 C         -4.6663892453        2.9992252479        0.7959491734
 H         -5.6119800610        3.5398458385        0.7111241158
 H         -3.9928084242        3.6028519961        1.4094970937
 C         -4.0562902735        2.8722875898       -0.6006986101
 H         -4.7998126183        2.5369243530       -1.3187583962
 H         -3.7527469895        3.8754734278       -0.9141665625
 C         -2.8087765243        1.9970967192       -0.6794356201
 H         -2.3459806245        2.1407470901       -1.6631188188
 H         -2.0690616919        2.3580402177        0.0438507972
 H         -6.0720366970       -0.0937287029        1.5700435416
 H         -6.8402565127        1.2394886744        0.7027919711
 H         -5.5768718078        0.8170245633       -1.2792655421
 H         -5.9932663126       -0.7753879028       -0.6589718891
 O         -3.8803993420       -1.6392398401       -0.2475761198
 C         -2.6661331589       -2.2889983306       -0.1377328959
 O         -2.7485599615       -3.5250009772        0.0179138658
 H          2.4423227374       -1.3004982365       -0.1518742439
 C          1.9557823494       -1.1585869409        0.7975175408
 C          0.6548779562       -1.5900613615        0.9980413069
 C          0.0839902543       -1.4231244125        2.2577619180
 C          0.7898632402       -0.8179103321        3.2786482018
 C          2.0760337378       -0.3531845761        3.0634635687
 C          2.6592688536       -0.5276898962        1.8150209373
 N          3.9630632056       -0.0795829863        1.5668117661
 S          4.4157783937        0.4395462666        0.0460312540
 O          4.6529631998       -0.6945645169       -0.8127976618
 O          5.5671534617        1.2830691813        0.2934794790
 C          3.0768367990        1.4284612344       -0.5933314881
 C          2.5988155793        2.4724699471        0.1716136609
 C          1.5800833718        3.2609108783       -0.3351689382
 C          1.0622872050        2.9973280704       -1.5925615441
 C          1.5562992248        1.9489355557       -2.3501357131
 C          2.5722193854        1.1542529039       -1.8469013169
 H          2.9786813931        0.3218056695       -2.4002647390
 H          1.1453646992        1.7397272468       -3.3254343602
 H          0.2627687249        3.6079283825       -1.9817617586
 H          1.1867031743        4.0736372318        0.2544312667
 H          3.0225702409        2.6572667983        1.1457027561
 H          4.3747527715        0.4796070691        2.2986608362
 H          2.6236181217        0.1355990423        3.8547246553
 H          0.3318806339       -0.6938110209        4.2485559363
 H         -0.9283531347       -1.7684526300        2.4209192986
 C         -0.1658634874       -2.2245156067       -0.0974200831
 H         -0.3825203020       -3.2653516948        0.1840422213
 C          0.5254229311       -2.2128465571       -1.4449775983
 C          1.5135386310       -3.2819344899       -1.7988327105
 C          0.1698372183       -3.2528929558       -2.4622809582
 H          0.1117204725       -2.9615612818       -3.5003079364
 H         -0.5594253782       -3.9972033799       -2.1765674339
 H          2.3850528861       -3.0103472703       -2.3761054289
 H          1.7002346135       -4.0520850383       -1.0655093494
 H          0.7120531452       -1.2062698789       -1.8030505838
 O         -0.5067162984        0.5954924888       -0.4162532674
