  62
        -98.94165722
 C          2.2863195833        0.7505038940        0.2366205388
 C          1.5711045859        0.0235787167       -0.7425661427
 C          1.7597678641       -1.4392712769       -0.7540382839
 C          2.4990497000       -2.0175928149        0.2094438265
 C          2.8937269908       -3.4615641929        0.4384910907
 C          2.2018737125       -4.5912605543       -0.3185394723
 C          0.7380403819       -4.8073042565        0.0610483357
 H          0.3285690824       -5.5837595028       -0.5892719867
 H          0.6941636593       -5.1762763164        1.0889509495
 C         -0.1541218833       -3.5712750666       -0.0249037355
 H         -1.1706229260       -3.8706317120        0.2485872790
 H          0.1547440281       -2.8258006122        0.7115772372
 C         -0.2202260427       -2.9096483728       -1.3992759854
 H         -0.4863950929       -3.6535466250       -2.1533025608
 H         -1.0233732915       -2.1697025467       -1.3579635308
 C          1.0600226172       -2.1866720654       -1.8541458777
 H          1.7509787833       -2.8764762237       -2.3350104469
 H          0.7737845208       -1.4372416597       -2.5979161717
 H          2.7448849687       -5.5079933402       -0.0727186396
 H          2.2987497167       -4.4435987136       -1.3899964207
 H          3.9686603287       -3.5109232550        0.2301358404
 H          2.7810286006       -3.6310484353        1.5143285555
 O          3.0978896752       -1.2819569564        1.1925113392
 C          3.0079840259        0.0964660789        1.2349248396
 O          3.6039523961        0.6190249657        2.1998007442
 H          0.2035097847        1.2993498338        1.8019693065
 C         -0.1616579572        2.0344178927        1.0987488489
 C          0.7313851922        2.6667863524        0.2421233326
 C          0.2389491043        3.6100729404       -0.6498622926
 C         -1.1161917174        3.8921678951       -0.6919392510
 C         -2.0072080694        3.2226578278        0.1266861419
 C         -1.5222747616        2.2760370350        1.0223093580
 N         -2.3846593279        1.5314024952        1.8551413710
 S         -2.4290376017       -0.1273669477        1.6044217392
 O         -3.3779130272       -0.6293728897        2.5760476905
 O         -1.0984614007       -0.6716006741        1.6734599280
 C         -3.1233525933       -0.3060446838       -0.0301989980
 C         -2.3624820015        0.0260138390       -1.1339421984
 C         -2.9454666621       -0.0525477205       -2.3907089043
 C         -4.2639812229       -0.4579760969       -2.5234610962
 C         -5.0134269714       -0.7878174095       -1.4039358102
 C         -4.4413199680       -0.7061031459       -0.1450965901
 H         -4.9834684619       -0.9500758728        0.7542636354
 H         -6.0387102306       -1.1047338620       -1.5072569006
 H         -4.7085016999       -0.5171651262       -3.5044074430
 H         -2.3541358741        0.2049512521       -3.2547881651
 H         -1.3341273299        0.3327059691       -1.0171066710
 H         -3.3321107711        1.8842339391        1.8781530904
 H         -3.0671432289        3.4206627910        0.0705458104
 H         -1.4860111164        4.6272408158       -1.3903962552
 H          0.9109479414        4.1083252071       -1.3290731490
 C          2.1817596668        2.2632724494        0.3464681082
 H          2.5186517147        2.4935564753        1.3714508505
 C          3.0991680209        3.0286214277       -0.5951453922
 C          4.3655869070        2.4115656774       -1.1075620232
 C          3.2293891287        2.6791984365       -2.0460047421
 H          3.3354987232        3.4840843748       -2.7585495158
 H          2.6539885987        1.8434348805       -2.4098560849
 H          5.2475876986        3.0311185070       -1.1716311109
 H          4.5708764246        1.3879478744       -0.8281830452
 H          3.1522321817        4.0825208560       -0.3395791834
 O          0.8164592283        0.5611874591       -1.5947288508
