  62
        -98.94752716
 C         -1.3309187725       -1.6298570589       -0.5030897476
 C         -1.1932231674       -0.3196535488       -1.0262279835
 C         -2.3837871389        0.5402140057       -0.9263809885
 C         -3.5120870684        0.0578843412       -0.3776880125
 C         -4.7839030608        0.8330087133       -0.1911709763
 C         -4.8346416058        1.5066652418        1.1863732216
 C         -3.5724280022        2.2957330745        1.5350000538
 H         -3.7396759019        2.7659537034        2.5068572079
 H         -2.7332133431        1.6058455353        1.6567530865
 C         -3.1897824959        3.3692582574        0.5071992210
 H         -4.0486725139        3.6054744865       -0.1228435027
 H         -2.9172744078        4.2816037562        1.0423205569
 C         -1.9945403480        2.9972298164       -0.3727755934
 H         -1.1789632352        2.6422121557        0.2639863734
 H         -1.6535579600        3.9054191688       -0.8791953922
 C         -2.2638547505        1.9420622473       -1.4540843865
 H         -3.1532661916        2.2184055330       -2.0249463994
 H         -1.4058677506        1.9327642771       -2.1326717952
 H         -5.6996216465        2.1722346757        1.2135604325
 H         -4.9755634740        0.7342941388        1.9460446018
 H         -4.8642304781        1.5820754637       -0.9764782136
 H         -5.6221582825        0.1390569651       -0.2760414964
 O         -3.6122764081       -1.2064903978        0.1059274767
 C         -2.5277868049       -2.0648220220        0.0742799532
 O         -2.7548496153       -3.1871343548        0.5719665623
 O         -0.1491272066        0.1303563225       -1.5678303135
 C         -0.2043238155       -2.6537799526       -0.4883265084
 C          0.7114870335       -2.4017824996        0.6851413553
 C          0.8883671698       -3.3546178796        1.6814137308
 C          1.7137849738       -3.0945685378        2.7613760104
 C          2.3633913720       -1.8784541489        2.8755107007
 C          2.1911704385       -0.9194855035        1.8834327082
 C          1.3850932159       -1.1937351402        0.7895856767
 H          1.2482885510       -0.4438121910        0.0289080382
 N          2.8415859541        0.3203257739        1.9490419654
 S          2.0924815662        1.6876656352        1.3338528303
 O          2.7902891702        2.7889821510        1.9701459686
 O          0.6648704586        1.6568992618        1.5549393122
 C          2.4932794779        1.7091602877       -0.4004995212
 C          3.5442549607        0.9538157041       -0.8791167478
 C          3.8564535301        1.0229492763       -2.2273553331
 C          3.1225394697        1.8449664704       -3.0677556045
 C          2.0765629758        2.6039165515       -2.5685070645
 C          1.7583580525        2.5383645545       -1.2220413757
 H          0.9437120921        3.1031860275       -0.7989062884
 H          1.5020991674        3.2404124432       -3.2227072615
 H          3.3635647506        1.8914109693       -4.1183129977
 H          4.6677310198        0.4297024436       -2.6183376966
 H          4.0892126610        0.3137584246       -0.2051260013
 H          3.3354347697        0.5114394092        2.8081230915
 H          2.9940020908       -1.6688276445        3.7261960647
 H          1.8426975781       -3.8414501103        3.5301696316
 H          0.3594638287       -4.2941965506        1.6146535867
 H         -0.6895430831       -3.6270707078       -0.3331189638
 C          0.5819895925       -2.7096088820       -1.7838692550
 C          1.3581532150       -3.9495089117       -2.1068259234
 C          0.1205953752       -3.6155680577       -2.8836084825
 H          0.2234515945       -3.2789223901       -3.9040813941
 H         -0.7680297845       -4.2043990966       -2.7065006451
 H          2.3147660326       -3.8444167857       -2.5945997487
 H          1.3088554435       -4.7683917846       -1.4050593750
 H          1.0078197900       -1.7571305803       -2.0693849149
