  62
        -98.94055149
 C         -0.1418614374       -2.0505837630        0.3017786122
 C         -0.5956559100       -0.9944222859       -0.5242396607
 C         -1.8587544384       -0.3580178004       -0.1223164211
 C         -2.4812955808       -0.7810394632        0.9927168675
 C         -3.8003103912       -0.2708412741        1.5004425023
 C         -4.9563433718       -0.8566501604        0.6644529196
 C         -5.7391195367        0.1800609734       -0.1414989351
 H         -6.3769680144       -0.3638878480       -0.8413306643
 H         -6.3910672156        0.7364399970        0.5351010732
 C         -4.8939211683        1.1930413036       -0.9192994686
 H         -5.5605210843        1.6820063625       -1.6326002949
 H         -4.5366461466        1.9699063865       -0.2417865851
 C         -3.6928896387        0.6169627247       -1.6797480769
 H         -3.6137299446        1.1393801331       -2.6347310310
 H         -3.8506970214       -0.4377660158       -1.9048388401
 C         -2.3394065071        0.7896546510       -0.9659399134
 H         -2.3573738292        1.6986538874       -0.3574854932
 H         -1.5598163252        0.9215853987       -1.7219141139
 H         -5.6535335434       -1.3763062718        1.3235121778
 H         -4.5422346953       -1.6085301890       -0.0103577930
 H         -3.8873663794       -0.5804937979        2.5423728736
 H         -3.8080327005        0.8164998741        1.4618930915
 O         -2.0099958655       -1.7947276695        1.7650606198
 C         -0.8260389032       -2.4414307887        1.4501992486
 O         -0.4955210341       -3.3359675686        2.2573699147
 O          0.0283630329       -0.5959315331       -1.5422361689
 C          1.1690741093       -2.7454865798       -0.0125959990
 C          2.2939408765       -1.7444353624       -0.1311639982
 C          3.3986645578       -1.9559003677       -0.9487369407
 C          4.4010311346       -1.0050873771       -1.0324507845
 C          4.3097105010        0.1863324585       -0.3355535686
 C          3.2062323314        0.4072860958        0.4828784630
 C          2.2342922114       -0.5718493364        0.6083305049
 H          1.3966934647       -0.3926875590        1.2645090315
 N          3.0625568902        1.6151920166        1.1861770740
 S          1.5981871668        2.3687956414        1.4267410302
 O          1.9530267588        3.6158901394        2.0736828513
 O          0.6975125478        1.5213775416        2.1715498758
 C          0.8646876317        2.7733574497       -0.1547339928
 C         -0.2031821617        3.6490869235       -0.0918514518
 C         -0.8271166496        4.0444641251       -1.2628137274
 C         -0.3740159976        3.5572088239       -2.4794989935
 C          0.6959728266        2.6796964293       -2.5269773771
 C          1.3260674992        2.2803886451       -1.3568991697
 H          2.1447993209        1.5813945514       -1.3894793202
 H          1.0437656898        2.2895083118       -3.4697797790
 H         -0.8603562022        3.8602744951       -3.3932614114
 H         -1.6624598376        4.7251565296       -1.2236548340
 H         -0.5176502876        4.0031589475        0.8774686259
 H          3.7890297143        2.2964873007        1.0204887923
 H          5.0759277257        0.9412186843       -0.4254991938
 H          5.2563000358       -1.1847155340       -1.6657759967
 H          3.4717264625       -2.8649380095       -1.5231709372
 H          1.3797781676       -3.4033856975        0.8441181962
 C          1.0195128317       -3.5986584471       -1.2584314361
 C          1.7366164070       -4.9088663807       -1.3799126675
 C          0.2540893775       -4.8832854622       -1.1650085264
 H         -0.3941986259       -5.1597045152       -1.9828533059
 H         -0.1284734532       -5.1584679485       -0.1924563263
 H          2.1055440950       -5.2068032276       -2.3499051207
 H          2.3584120214       -5.2198046677       -0.5537861152
 H          0.8868019502       -3.0011697119       -2.1530907781
