  62
        -98.94348657
 C         -1.8307464553       -0.5593438606        0.2872629291
 C         -2.9534600508       -0.6347806115        1.1449814185
 C         -4.2562592862       -0.7579127890        0.4819627809
 C         -4.3187773541       -0.8120186542       -0.8612195851
 C         -5.5717117075       -0.9547959777       -1.6823670847
 C         -6.3001180151        0.3704206215       -1.9456586257
 C         -7.0250249141        0.9663040711       -0.7381462335
 H         -7.6663548221        1.7668080367       -1.1122910375
 H         -7.6738074531        0.2100022213       -0.2952900367
 C         -6.0944959664        1.5428096479        0.3381018900
 H         -5.0982396297        1.6929568968       -0.0846372135
 H         -6.4604503597        2.5239309980        0.6493026000
 C         -5.9735259191        0.6840974108        1.5971248272
 H         -5.2630192106        1.1656547532        2.2741080057
 H         -6.9404042680        0.6369575122        2.1030522539
 C         -5.4857864622       -0.7476147482        1.3393169924
 H         -6.2775877065       -1.3377984018        0.8786701488
 H         -5.2250647211       -1.1989941230        2.2997892918
 H         -5.5789535368        1.0946846152       -2.3315215336
 H         -7.0379187521        0.1862750774       -2.7299919225
 H         -6.2516261685       -1.6545342405       -1.1956404929
 H         -5.2671002103       -1.3761621961       -2.6426674881
 O         -3.2125351247       -0.7599994776       -1.6500014037
 C         -1.9459201717       -0.6135373360       -1.1019990869
 O         -1.0274616156       -0.5512413381       -1.9402184031
 O         -2.8705526976       -0.5980502215        2.4025688793
 C         -0.4498095467       -0.4120896813        0.8964793455
 C          0.2283597869        0.8423207874        0.4033548698
 C         -0.5118448422        2.0154665532        0.2791443735
 C          0.0777392897        3.1808088867       -0.1689127240
 C          1.4256242102        3.2092689458       -0.4810760631
 C          2.1790269753        2.0512078427       -0.3420842116
 C          1.5790992236        0.8767347394        0.0928337960
 H          2.1823882438       -0.0102207241        0.1922596158
 N          3.5468704034        2.0435861252       -0.6529885896
 S          4.6193894037        1.2358515198        0.3455811651
 O          4.1831355403        1.2542228147        1.7221404611
 O          5.9013679087        1.8541301012        0.0794043187
 C          4.6578063525       -0.4351723976       -0.2665730600
 C          4.6019563198       -0.6556896792       -1.6284899510
 C          4.6827026744       -1.9567206468       -2.0986588674
 C          4.8277069959       -3.0084219967       -1.2064580923
 C          4.8887301248       -2.7696964203        0.1576484054
 C          4.8030536212       -1.4708864706        0.6349231522
 H          4.8335235027       -1.2412194468        1.6881525516
 H          5.0014193947       -3.5884276117        0.8507726150
 H          4.8916885938       -4.0197775073       -1.5759872654
 H          4.6320495590       -2.1465338211       -3.1587880897
 H          4.4866484493        0.1832123284       -2.2941950679
 H          3.9190082718        2.9325285747       -0.9542244885
 H          1.8894377288        4.1197637281       -0.8293689979
 H         -0.5140465502        4.0784195092       -0.2693251591
 H         -1.5631280137        1.9996205099        0.5331714599
 H         -0.6174459440       -0.3020989899        1.9791691333
 C          0.3607447796       -1.6693053175        0.6573498536
 C          1.3843163229       -2.1178028860        1.6556986627
 C          0.0963285044       -2.8700878738        1.5138605452
 H          0.1163445211       -3.8464329150        1.0538650519
 H         -0.6468572387       -2.7683014502        2.2912942443
 H          2.2888308930       -2.5790462310        1.2890676220
 H          1.5264920587       -1.5082073970        2.5356933352
 H          0.5625506812       -1.8376883637       -0.3947572820
