  62
        -98.94967311
 C         -1.4989874881       -1.0613455600        0.0437275026
 C         -2.5208663310       -0.6405820668        0.9251560631
 C         -3.0614378700        0.7032466596        0.6868612713
 C         -2.5436763816        1.4545394559       -0.3026199226
 C         -3.0264718279        2.8250687139       -0.6783935975
 C         -4.1186414409        2.7575864196       -1.7552129827
 C         -5.2371587967        1.7651001184       -1.4376409462
 H         -5.9643613162        1.8236837766       -2.2502251125
 H         -4.8267179726        0.7528648163       -1.4440434461
 C         -5.9453609903        2.0147465217       -0.0988984665
 H         -5.7450520502        3.0309802611        0.2424412215
 H         -7.0233253738        1.9298278308       -0.2512690884
 C         -5.5735067513        1.0271868329        1.0086163145
 H         -5.6835071168        0.0044056731        0.6395912210
 H         -6.2814302898        1.1564582537        1.8316115928
 C         -4.1629221981        1.1782382305        1.5926312042
 H         -4.1042719811        0.5516696263        2.4878433259
 H         -3.9949959493        2.2154190858        1.8913426270
 H         -3.6552744266        2.4618996021       -2.6991942752
 H         -4.5401169240        3.7565214189       -1.8812777032
 H         -3.4062133586        3.3253657573        0.2105500032
 H         -2.1765240656        3.3914911261       -1.0634287805
 O         -1.5450941130        1.0266421716       -1.1141469504
 C         -0.9929737537       -0.2329258750       -0.9570978475
 O         -0.0791097184       -0.4997149196       -1.7620470851
 O         -2.9566676602       -1.3553308496        1.8699728009
 C         -0.8825901639       -2.4353643507        0.2262378093
 C          0.6100228295       -2.3253218138        0.4185445502
 C          1.5121493964       -3.2396144245       -0.1124327491
 C          2.8730051093       -3.0836141021        0.0874754110
 C          3.3645191692       -2.0040324575        0.7981900484
 C          2.4697227309       -1.0892964328        1.3399777664
 C          1.1072313726       -1.2700217851        1.1725788954
 H          0.4289534325       -0.5476337113        1.6034074200
 N          2.9136294469        0.0506219841        2.0467926028
 S          2.6170313736        1.5246939922        1.3000411173
 O          3.2499229191        2.5111488031        2.1503834772
 O          1.2040973875        1.6881187111        1.0768476202
 C          3.5150276420        1.4077179617       -0.2372861831
 C          4.8035187621        1.9067814452       -0.2801476822
 C          5.5488308791        1.7462616099       -1.4363441411
 C          4.9990840816        1.0808233178       -2.5221548464
 C          3.7069105268        0.5833602282       -2.4607877951
 C          2.9515341851        0.7436788015       -1.3082486845
 H          1.9414246091        0.3680289192       -1.2452127054
 H          3.2714015924        0.0653366470       -3.3001787061
 H          5.5794175781        0.9496169128       -3.4218313426
 H          6.5529588405        2.1356110083       -1.4861678756
 H          5.1860298156        2.4187528827        0.5882640959
 H          3.8914739498        0.0091010774        2.3028266232
 H          4.4268592648       -1.8656963129        0.9322426833
 H          3.5601894423       -3.8021642507       -0.3321083179
 H          1.1482037710       -4.0742537368       -0.6890695758
 H         -1.3226850017       -2.8340585204        1.1531858786
 C         -1.2703952524       -3.3409892666       -0.9258625962
 C         -1.4624405327       -4.8116373312       -0.7086045360
 C         -2.6486820714       -3.9285563154       -0.9486338936
 H         -3.1650272761       -3.9982416027       -1.8942983591
 H         -3.2957602585       -3.6996257485       -0.1142926624
 H         -1.1665128277       -5.4915928004       -1.4932358475
 H         -1.3123876603       -5.1941721035        0.2896389033
 H         -0.8515950320       -3.0106369484       -1.8700732960
