  62
        -98.93707115
 C         -2.5802215234       -1.3323699962       -0.1433738323
 C         -2.2090640409       -0.0818075682       -0.6982315408
 C         -3.3134268634        0.8596556103       -0.9510422467
 C         -4.5762319787        0.4978507782       -0.6647933652
 C         -5.7829258595        1.3744694395       -0.8299656017
 C         -6.0791960388        2.1571862752        0.4567577210
 C         -4.8588269337        2.8690488883        1.0409231483
 H         -4.1362630254        2.1226026916        1.3796744487
 H         -5.1930183243        3.4152144962        1.9257583258
 C         -4.1662127197        3.8387728894        0.0732776952
 H         -3.9420197642        4.7648230929        0.6068609799
 H         -4.8417214633        4.0915576148       -0.7448382838
 C         -2.8439852866        3.3267019894       -0.5017010960
 H         -2.1962166158        2.9857652202        0.3107705163
 H         -2.3385273706        4.1649219495       -0.9890848377
 C         -2.9561566163        2.1978924222       -1.5343077059
 H         -1.9709995016        2.0723702602       -1.9932047163
 H         -3.6659819328        2.4814648126       -2.3142067658
 H         -6.4596920624        1.4598159853        1.2066474046
 H         -6.8615239344        2.8879948598        0.2442292500
 H         -6.6393385281        0.7396535287       -1.0635552140
 H         -5.6161000303        2.0624125952       -1.6563928971
 O         -4.8944104666       -0.7110882809       -0.1363345586
 C         -3.9102979449       -1.6383558799        0.1607936589
 O         -4.3397021339       -2.6851641187        0.6853237082
 O         -1.0282423254        0.2466968955       -0.9830386572
 C         -1.5543217480       -2.3927132817        0.2242557208
 C         -0.4276388926       -1.7570638596        0.9999838453
 C         -0.6686707366       -1.3273859329        2.3017887509
 C          0.3247338642       -0.7072201295        3.0352790733
 C          1.5788943041       -0.5024295883        2.4870282708
 C          1.8253938611       -0.9169931620        1.1856759243
 C          0.8266382313       -1.5469004985        0.4525411625
 H          1.0197516335       -1.8421923850       -0.5669161703
 N          3.0984242413       -0.7289430661        0.6163014348
 S          3.9291924708        0.6987024247        0.9650097640
 O          4.5350942554        0.5638274407        2.2672842525
 O          3.0719083255        1.8489042737        0.7870992872
 C          5.1926311078        0.6588651555       -0.2912133110
 C          4.9449592285        1.2603917447       -1.5107087670
 C          5.9190708973        1.2050628245       -2.4951196986
 C          7.1162339120        0.5506879146       -2.2455927202
 C          7.3499151358       -0.0483874857       -1.0167933066
 C          6.3805790306        0.0040489817       -0.0277343518
 H          6.5200248306       -0.4384666872        0.9446516796
 H          8.2827068906       -0.5542120983       -0.8264828514
 H          7.8722795910        0.5100534222       -3.0137286625
 H          5.7408125452        1.6718437143       -3.4505480921
 H          4.0035259370        1.7659497615       -1.6581746552
 H          3.0902918092       -0.9019067909       -0.3799000291
 H          2.3595357613       -0.0099571404        3.0441873591
 H          0.1229468774       -0.3753697167        4.0431052179
 H         -1.6523908324       -1.4757266305        2.7275017674
 H         -2.0876119125       -3.0743421358        0.9065175286
 C         -1.0750321064       -3.2425887700       -0.9429362762
 C         -2.0226033951       -3.6371460173       -2.0353043443
 C         -0.8896363648       -2.7021337538       -2.3276733543
 H         -0.0606588066       -3.0741403514       -2.9124359954
 H         -1.1101937618       -1.6602831580       -2.4966116700
 H         -1.9741726308       -4.6446489633       -2.4199591133
 H         -3.0236317422       -3.2326302001       -1.9942305937
 H         -0.3700624786       -4.0025377418       -0.6190505694
