  62
        -98.93985179
 C         -0.9032462870       -1.5679178101        0.3810746089
 C         -1.4979097877       -0.9277451584       -0.7326271471
 C         -2.3847787626        0.2227103806       -0.4442279485
 C         -2.6407411695        0.5496462288        0.8350810528
 C         -3.5346142106        1.6417262504        1.3588493844
 C         -5.0287890849        1.3024636003        1.2268997286
 C         -5.4325147993        0.6659777618       -0.1005643912
 H         -4.8458385129       -0.2409855520       -0.2577710623
 H         -6.4802417483        0.3646891833       -0.0198221722
 C         -5.3009227316        1.5708478119       -1.3232235106
 H         -5.9309820671        2.4527571234       -1.1868625929
 H         -5.6871418243        1.0162265716       -2.1822620195
 C         -3.8828244709        2.0373540319       -1.6589028941
 H         -3.5618179780        2.8318044702       -0.9901427607
 H         -3.9094803927        2.4728969595       -2.6623516166
 C         -2.8366901370        0.9277738941       -1.6993059817
 H         -3.1739710041        0.1415067467       -2.3845933944
 H         -1.9177276458        1.3293598001       -2.1489794863
 H         -5.2855008874        0.5988273556        2.0223588605
 H         -5.6049831594        2.2155355925        1.3848518553
 H         -3.2989116523        1.7598792900        2.4187901688
 H         -3.3022226967        2.5798845604        0.8627962305
 O         -2.1113730115       -0.1500062904        1.8796134311
 C         -1.2138927009       -1.1814119656        1.6868843379
 O         -0.7724110688       -1.6777968462        2.7427924562
 O         -1.3131241560       -1.2709368479       -1.9305060693
 C          0.1365545372       -2.6683268036        0.2668747229
 C          1.5217950918       -2.0950879029        0.0647957062
 C          2.6184281157       -2.6597827948        0.7075122459
 C          3.8880783419       -2.1441728797        0.5222774914
 C          4.0869293004       -1.0377913623       -0.2844451027
 C          2.9978662070       -0.4622993595       -0.9268638474
 C          1.7304091232       -1.0028861866       -0.7638265644
 H          0.9076827788       -0.5537556204       -1.2956198361
 N          3.1503317117        0.6823929700       -1.7311811942
 S          2.1299233782        1.9781045033       -1.4339437912
 O          0.8230282521        1.7414976206       -1.9877462576
 O          2.8425640973        3.1229970981       -1.9606280680
 C          2.0542188542        2.0710272797        0.3451560862
 C          0.9431235570        1.5935373843        1.0081413485
 C          0.9352565767        1.5967110640        2.3940807498
 C          2.0346297341        2.0772942875        3.0881627667
 C          3.1405974545        2.5643344780        2.4074444140
 C          3.1558092444        2.5568274360        1.0225814654
 H          3.9926278088        2.9330083280        0.4566966630
 H          3.9902994769        2.9425199996        2.9525156579
 H          2.0247703725        2.0713179608        4.1666189932
 H          0.0781151355        1.2061935579        2.9205321864
 H          0.1053286144        1.2263332880        0.4354214372
 H          4.1050802053        1.0029366942       -1.8133459936
 H          5.0739563868       -0.6219075983       -0.4166760003
 H          4.7296854357       -2.5962779611        1.0239178836
 H          2.4684045715       -3.5034807529        1.3640078034
 H          0.1312566620       -3.1858132643        1.2364538909
 C         -0.1615965323       -3.6874826861       -0.8169484187
 C          0.3413849456       -5.0905930892       -0.6690430861
 C         -1.1228399959       -4.8008332235       -0.5338050343
 H         -1.7917960704       -5.1146268311       -1.3208704529
 H         -1.5616053273       -4.8409864477        0.4529041891
 H          0.6836886682       -5.6078643064       -1.5520846775
 H          0.8894747457       -5.3392706527        0.2267095447
 H         -0.1771777515       -3.2580407684       -1.8102254758
