  62
        -98.93915297
 C          1.9072003350        0.7824512891        0.6969047150
 C          2.1007045840        0.2216847001       -0.5894261942
 C          2.5957850486       -1.1634797046       -0.6158457181
 C          2.7484731992       -1.8352751624        0.5386949429
 C          3.2923875372       -3.2290334684        0.6574309546
 C          4.8157493704       -3.2156941977        0.8489837494
 C          5.5569061718       -2.3333752762       -0.1557177028
 H          5.2830144266       -1.2900029362        0.0169567472
 H          6.6241425111       -2.4247126543        0.0571419373
 C          5.2956506184       -2.6882652467       -1.6261462867
 H          6.2480626706       -2.6890720569       -2.1602153210
 H          4.8833553921       -3.6953817438       -1.6958695822
 C          4.3743658368       -1.7121961080       -2.3603521053
 H          4.7339453128       -0.6904005806       -2.2152219720
 H          4.4308962967       -1.9303671464       -3.4299837788
 C          2.8937485606       -1.7629992519       -1.9614713018
 H          2.3312044429       -1.1649480165       -2.6845344823
 H          2.5320482773       -2.7919794612       -2.0128542805
 H          5.0340653926       -2.8482599661        1.8544744289
 H          5.1813818172       -4.2414304337        0.7750882064
 H          2.8280034490       -3.7054732952        1.5225925428
 H          3.0316379408       -3.7915415919       -0.2369693229
 O          2.4656829730       -1.2931607457        1.7518483200
 C          2.0445120763        0.0215492942        1.8594925282
 O          1.8241949657        0.3925294383        3.0315795955
 O          1.8836377695        0.8359115204       -1.6659261756
 C          1.4128750541        2.2070660655        0.8759549769
 C          0.2408688251        2.4635067205       -0.0410827645
 C          0.1374533298        3.5645242324       -0.8799494490
 C         -0.9873795288        3.7371720514       -1.6685515298
 C         -2.0250175888        2.8256295863       -1.6365853281
 C         -1.9248268827        1.7107951782       -0.8090614112
 C         -0.8048727859        1.5479117062       -0.0129081688
 H         -0.7369525391        0.6847289490        0.6354410552
 N         -2.9399234954        0.7397819793       -0.8003189661
 S         -3.1279148616       -0.2810073422        0.5226152763
 O         -3.1943965264        0.4854973125        1.7480409179
 O         -2.1225952446       -1.3141308281        0.4649612899
 C         -4.7279320645       -0.9739488305        0.1493934975
 C         -4.8100724984       -1.9776438273       -0.7974490793
 C         -6.0544656030       -2.4971514845       -1.1168039481
 C         -7.1899531974       -2.0069030734       -0.4886168776
 C         -7.0917657556       -1.0013478671        0.4611591832
 C         -5.8501108819       -0.4765972601        0.7845001921
 H         -5.7230132828        0.3000468715        1.5213834457
 H         -7.9754055260       -0.6247075566        0.9505369598
 H         -8.1570634697       -2.4132886174       -0.7390981954
 H         -6.1339085800       -3.2809731615       -1.8526359389
 H         -3.8992349414       -2.3311553379       -1.2522509953
 H         -3.8228885915        1.0769290885       -1.1574646594
 H         -2.8988754841        2.9617732660       -2.2549804295
 H         -1.0557788653        4.5968200590       -2.3179366532
 H          0.9423715533        4.2789269477       -0.9313324931
 H          1.0285109857        2.2424401904        1.9102954314
 C          2.5042134706        3.2640417488        0.7826127607
 C          3.9417640872        2.9159766282        1.0272761242
 C          3.4873922764        3.2987560235       -0.3474069390
 H          3.7886413828        4.2612238299       -0.7345017171
 H          3.4057005466        2.5295186498       -1.0983345565
 H          4.5491638969        3.6129791203        1.5851367211
 H          4.1787965442        1.8793429923        1.2203647748
 H          2.1741557000        4.2222671822        1.1720842399
