  62
        -98.94965659
 C         -1.6869724814       -1.2246397722        0.3400909378
 C         -1.3293071937       -0.1583101515       -0.5176035471
 C         -1.9019132082        1.1494893538       -0.1864525165
 C         -2.6765715309        1.2810281726        0.9052553544
 C         -3.3032171142        2.5574438318        1.3976572318
 C         -4.6261978191        2.9164430780        0.7066203445
 C         -4.4967896312        3.4084537848       -0.7354851815
 H         -3.7654013164        4.2161458243       -0.7766018630
 H         -5.4641031333        3.8289002271       -1.0175218122
 C         -4.1189489958        2.3162895864       -1.7456561263
 H         -4.7609116982        2.3968241662       -2.6256397514
 H         -4.3010580515        1.3340544274       -1.3037416902
 C         -2.6712250594        2.3780241450       -2.2323613233
 H         -2.5108052030        3.3036059388       -2.7893830029
 H         -2.5025823978        1.5398413534       -2.9127589481
 C         -1.6263308033        2.2958207506       -1.1116622258
 H         -1.5929531569        3.2315739771       -0.5535166043
 H         -0.6449549060        2.1291351000       -1.5627612084
 H         -5.0960802771        3.7065267222        1.2969655915
 H         -5.2827402343        2.0438027149        0.7372431499
 H         -2.5928863617        3.3773614860        1.2844119957
 H         -3.4973397772        2.4155316749        2.4632781245
 O         -2.9722761944        0.2368375425        1.7253871112
 C         -2.4876082570       -1.0347129220        1.4641496663
 O         -2.8334984179       -1.8997758975        2.2968036241
 O         -0.5645545841       -0.2930519656       -1.5092157210
 C         -1.1281388649       -2.6122483551        0.0839586574
 C          0.3788701052       -2.5520689205        0.0105700087
 C          1.1277694380       -3.2831651533       -0.9035803665
 C          2.5069899883       -3.1681202031       -0.9336405477
 C          3.1651028896       -2.3081997729       -0.0734218837
 C          2.4251519022       -1.5813011791        0.8516744964
 C          1.0496624550       -1.7310459406        0.9080192288
 H          0.4913496887       -1.1602344527        1.6361524444
 N          3.0398867070       -0.6713739709        1.7385054276
 S          2.6330382324        0.9464357778        1.5599733454
 O          3.4493831315        1.6456192427        2.5300195088
 O          1.2085129010        1.1165015765        1.6837380365
 C          3.1933865757        1.3578613892       -0.0836453794
 C          2.4367412275        0.9798650889       -1.1746427149
 C          2.9281118049        1.2391598847       -2.4455911343
 C          4.1557112453        1.8628448373       -2.6041260188
 C          4.9028713026        2.2355130552       -1.4966166809
 C          4.4215348112        1.9764022857       -0.2239222380
 H          4.9647007876        2.2489315313        0.6666441369
 H          5.8566963154        2.7225228702       -1.6205470852
 H          4.5306712599        2.0596143119       -3.5961527845
 H          2.3404489710        0.9455353991       -3.3006760947
 H          1.4809389196        0.4986360065       -1.0330225413
 H          4.0477404699       -0.7521364998        1.7656012722
 H          4.2381498869       -2.1964848464       -0.1150707373
 H          3.0748541570       -3.7415018746       -1.6502190991
 H          0.6295206891       -3.9393683448       -1.5983946585
 H         -1.4088644215       -3.2220274680        0.9556954984
 C         -1.7629195689       -3.2086180967       -1.1565367053
 C         -1.9826209785       -4.6871438933       -1.2626924171
 C         -3.1488789232       -3.7688995533       -1.0582340718
 H         -3.8312817862       -3.6064899823       -1.8790034656
 H         -3.6219825121       -3.7460242397       -0.0868996041
 H         -1.8684662401       -5.1580866475       -2.2274512527
 H         -1.6719386886       -5.3006028599       -0.4304839272
 H         -1.5074442627       -2.6606379273       -2.0563334816
