  62
        -98.94119019
 C          2.5404754901        0.7986157174       -0.5302361425
 C          3.2824250902        0.0463206186        0.4193160955
 C          3.4490712024       -1.3818068413        0.1371830186
 C          2.9308434148       -1.9004157207       -0.9903132140
 C          3.0149520188       -3.3369916594       -1.4279129358
 C          1.9309656514       -4.2306628563       -0.8094749186
 C          2.1277216042       -4.5581191086        0.6712380302
 H          1.4337178164       -5.3647616160        0.9153342129
 H          3.1382657503       -4.9367810169        0.8286569880
 C          1.8633113005       -3.3809625126        1.6209322413
 H          1.2823055733       -2.6133707499        1.1018337905
 H          1.2500600702       -3.7203297039        2.4593164618
 C          3.1224565065       -2.7448095419        2.2115655424
 H          3.6288524280       -3.4681594779        2.8546763919
 H          2.8155904940       -1.8982429369        2.8314396979
 C          4.1253759816       -2.2315278747        1.1698435039
 H          4.8627652690       -1.6089987666        1.6823772280
 H          4.6390053760       -3.0684434953        0.6974714956
 H          0.9594330618       -3.7487880016       -0.9466156670
 H          1.9210279459       -5.1685918869       -1.3696347488
 H          2.8883023828       -3.3408276332       -2.5126025457
 H          4.0003428808       -3.7380375540       -1.1897671840
 O          2.2593538476       -1.1433230749       -1.8943950010
 C          2.0030627482        0.2019358984       -1.6705388127
 O          1.3049558174        0.7214900085       -2.5665446413
 H         -0.1499530274        1.5396407560       -1.0699536706
 C         -0.1901573976        1.9325157265       -0.0641944967
 C          0.9760931214        2.3795614530        0.5408345897
 C          0.9020378506        2.8698058223        1.8387412965
 C         -0.3057920313        2.8980156807        2.5154389185
 C         -1.4604127130        2.4249134728        1.9177041584
 C         -1.3940251421        1.9365378182        0.6204840957
 N         -2.5629295150        1.3922715265        0.0206577295
 S         -2.8550594657       -0.1826180854        0.5783957971
 O         -2.9594600932       -0.1367954049        2.0144088449
 O         -1.8700325763       -1.0971839044        0.0377193375
 C         -4.4544486272       -0.5075381991       -0.1367934423
 C         -4.5396406616       -1.2213663025       -1.3161370722
 C         -5.7872385793       -1.4362855629       -1.8808386874
 C         -6.9207571714       -0.9320770841       -1.2615319139
 C         -6.8184337930       -0.2156915259       -0.0781941023
 C         -5.5744104050        0.0014084631        0.4919202891
 H         -5.4456596202        0.5444437626        1.4132476879
 H         -7.7024620293        0.1734321406        0.4005267195
 H         -7.8899336953       -1.1006663107       -1.7036938888
 H         -5.8686999813       -1.9945923583       -2.7996241992
 H         -3.6319412112       -1.6006766840       -1.7586482945
 H         -2.4405226576        1.3245081881       -0.9834155995
 H         -2.3996473008        2.4040983080        2.4449057348
 H         -0.3449405022        3.2778036867        3.5250992448
 H          1.8051424154        3.2046955267        2.3278372737
 C          2.2961596277        2.2592882694       -0.1839616026
 H          3.0920214432        2.5266771505        0.5243400417
 C          2.3657783539        3.2049466270       -1.3651238308
 C          2.6572336716        4.6536426770       -1.1172326762
 C          3.6890010603        3.7816218309       -1.7658955187
 H          3.8936456990        3.9133312885       -2.8175885802
 H          4.5543509552        3.4963222873       -1.1856072209
 H          2.8250837135        4.9624645388       -0.0966863464
 H          2.1518462176        5.3900308303       -1.7226696067
 H          1.6722819329        2.9576138631       -2.1578584050
 O          3.7848622100        0.5530818400        1.4577895967
