  62
        -98.94368291
 C          1.1269408490        1.4787074602        0.2103789707
 C          1.6095333776        0.4601691550        1.0717120342
 C          2.4839356683       -0.5535796464        0.4684305894
 C          2.7380195765       -0.4932656607       -0.8511289499
 C          3.6206647156       -1.4494595269       -1.5990034795
 C          5.0699370063       -0.9470584441       -1.6527756922
 C          5.6224470642       -0.5179813083       -0.2934962764
 H          6.6602852406       -0.2139091637       -0.4456188379
 H          5.0758553176        0.3635283779        0.0494102349
 C          5.5600810237       -1.6058352201        0.7876867532
 H          5.4295043106       -2.5831681688        0.3218503613
 H          6.5136061614       -1.6246950503        1.3195566208
 C          4.4684032957       -1.3942725390        1.8381203284
 H          4.5379120803       -0.3792392223        2.2370973051
 H          4.6557627736       -2.0848469176        2.6645209140
 C          3.0272511852       -1.6288496085        1.3671955637
 H          2.9483013661       -2.6073526874        0.8886287502
 H          2.3887208742       -1.6266011003        2.2550341483
 H          5.6945591251       -1.7394297648       -2.0693343402
 H          5.1137137217       -0.0895199119       -2.3283477118
 H          3.5793780289       -2.4244307733       -1.1166574028
 H          3.2357160244       -1.5431328830       -2.6163237199
 O          2.2479305118        0.4841454882       -1.6514701486
 C          1.4303744614        1.4948684789       -1.1531596252
 O          1.0778023894        2.3171351812       -2.0170733551
 H         -1.1186046391        1.1390307634       -1.1100882939
 C         -1.7259779589        1.2813730929       -0.2290199894
 C         -1.2178110346        1.9671744185        0.8650040167
 C         -2.0296580541        2.1362769973        1.9809402074
 C         -3.3201456310        1.6376753528        1.9954499664
 C         -3.8131729642        0.9322366727        0.9123291673
 C         -3.0049512509        0.7456068231       -0.2025685735
 N         -3.4468255460       -0.0101122697       -1.3080771296
 S         -2.5085110073       -1.3402720175       -1.7163656500
 O         -1.2638266248       -0.9196695464       -2.3045391926
 O         -3.3689787187       -2.1538852278       -2.5481746392
 C         -2.2252291464       -2.1447327734       -0.1511684010
 C         -1.1105840066       -1.8015769034        0.5860367192
 C         -0.9560357982       -2.3329554618        1.8562840646
 C         -1.9101335407       -3.2027843810        2.3607573953
 C         -3.0182810060       -3.5501313987        1.6020489796
 C         -3.1857593057       -3.0091509910        0.3377892610
 H         -4.0326132628       -3.2489486805       -0.2848230900
 H         -3.7547498243       -4.2318553705        1.9958816974
 H         -1.7865720743       -3.6112814046        3.3512147435
 H         -0.0985379716       -2.0413275129        2.4420247454
 H         -0.3816324712       -1.1258202280        0.1658603136
 H         -4.4164890232       -0.2898490146       -1.2459005695
 H         -4.8116646310        0.5227367411        0.9290415851
 H         -3.9418272936        1.7818083115        2.8655005584
 H         -1.6371208094        2.6490846893        2.8464053274
 C          0.1947944169        2.4979584538        0.8419670151
 H          0.5261691382        2.5806005986        1.8900372748
 C          0.2867028135        3.8854420082        0.2254475604
 C         -0.7501554287        4.4371177625       -0.7014415109
 C         -0.6240845099        4.9848277619        0.6866449367
 H         -0.2110551091        5.9736379064        0.8158716656
 H         -1.3994292322        4.7315456543        1.3931594643
 H         -0.4100400423        5.0308704645       -1.5359175833
 H         -1.6016534548        3.8166157775       -0.9352549734
 H          1.3137614497        4.1626857000        0.0110595985
 O          1.3165357719        0.4025205734        2.2965104524
