  62
        -98.93968895
 C          2.2248004615        1.1953074901        0.2243739497
 C          3.0919217597        0.4825639016        1.0906674149
 C          4.1423748579       -0.3175955749        0.4475293097
 C          4.2074818694       -0.3557494460       -0.8957613631
 C          5.1976936107       -1.1620768838       -1.6842358129
 C          4.6461324981       -2.5565290186       -2.0120520236
 C          4.0565293567       -3.2865205382       -0.8051232003
 H          3.1678495817       -2.7505215558       -0.4624866331
 H          3.7244350643       -4.2688057305       -1.1484335585
 C          5.0286929414       -3.4576338920        0.3706868521
 H          6.0538110158       -3.3146594742        0.0273247081
 H          4.9507462034       -4.4813603651        0.7427610785
 C          4.7593618341       -2.5312410503        1.5581633682
 H          3.7075185054       -2.6024940650        1.8482342493
 H          5.3545518949       -2.8826866099        2.4052074946
 C          5.1012445492       -1.0513997840        1.3424041280
 H          5.0452004805       -0.5534236913        2.3149199601
 H          6.1231467369       -0.9613083594        0.9684252370
 H          3.8614565594       -2.4508605078       -2.7647483072
 H          5.4516754188       -3.1543481892       -2.4419697626
 H          6.1207868794       -1.2496008403       -1.1145059669
 H          5.4048179241       -0.6348157304       -2.6169214318
 O          3.3337900629        0.3054527365       -1.6950850079
 C          2.3123886424        1.0850327424       -1.1643269163
 O          1.5764610413        1.6019661672       -2.0237985776
 O          2.9888279060        0.5119301789        2.3469163014
 C          1.1315375319        2.0354199865        0.8586548351
 C         -0.1989827256        1.7555317026        0.2052212564
 C         -1.0285612384        2.7407104618       -0.3131379871
 C         -2.2455901692        2.4079491129       -0.8829493978
 C         -2.6640361887        1.0919448668       -0.9450549509
 C         -1.8435323766        0.0984888101       -0.4271407615
 C         -0.6296040908        0.4346659576        0.1460276131
 H          0.0045653016       -0.3459441237        0.5519002884
 N         -2.2843517819       -1.2497528282       -0.4764506385
 S         -3.3815629413       -1.6328608104        0.7469741532
 O         -2.9985458582       -1.0233013354        2.0025553788
 O         -3.4757510415       -3.0762985960        0.7462277642
 C         -4.9049477937       -0.9228831781        0.1687528315
 C         -5.3903035242        0.2232305532        0.7668793572
 C         -6.5637861184        0.7824778494        0.2860007743
 C         -7.2256301494        0.1889876926       -0.7782651055
 C         -6.7263269747       -0.9645288117       -1.3650665252
 C         -5.5535154142       -1.5290209336       -0.8894617727
 H         -5.1310798148       -2.4260961597       -1.3107119070
 H         -7.2452350218       -1.4235585823       -2.1910812846
 H         -8.1370024971        0.6279517801       -1.1524532159
 H         -6.9537152959        1.6788961599        0.7405187020
 H         -4.8384198892        0.6503889568        1.5885050469
 H         -1.5184037042       -1.9080879664       -0.4253050554
 H         -3.6016745043        0.8253656515       -1.4044269440
 H         -2.8735162602        3.1851697669       -1.2904591831
 H         -0.7136396341        3.7707999699       -0.2904310041
 H          1.0726940860        1.6641673368        1.8967636287
 C          1.4597604155        3.5185733413        0.9516302659
 C          2.8781628051        4.0027135658        0.9421819856
 C          1.9787203649        4.2977024189       -0.2185179004
 H          1.6337719921        5.3125803143       -0.3518032987
 H          2.1353787285        3.7634412930       -1.1421754664
 H          3.1469802670        4.8102918598        1.6065329598
 H          3.6592869757        3.2677350294        0.8112181944
 H          0.7839092588        4.0398109275        1.6227267596
