  62
        -98.93762956
 C         -2.6179432041       -1.1292700700        0.2158236944
 C         -2.7337074131       -0.2697404043       -0.9022545415
 C         -3.5652685456        0.9319467032       -0.7138899702
 C         -4.1586778568        1.1471081757        0.4726667066
 C         -5.0748883986        2.2776093862        0.8693490870
 C         -4.6744643262        3.6959821159        0.4381672020
 C         -3.1619532945        3.9503573732        0.3586909353
 H         -2.9259148493        4.8590010256        0.9159651319
 H         -2.6182184651        3.1299886382        0.8310388797
 C         -2.6616457723        4.1366508899       -1.0760824243
 H         -1.7048283883        4.6635059481       -1.0480078833
 H         -3.3693154242        4.7730342278       -1.6117982289
 C         -2.4460283769        2.8492719791       -1.8713237641
 H         -1.5780230506        2.3107015819       -1.4804331457
 H         -2.2112270652        3.1264399007       -2.9016492155
 C         -3.6326075325        1.8716971025       -1.8830053691
 H         -4.5809720141        2.4020335794       -1.9202096091
 H         -3.5441391859        1.2481679894       -2.7765973834
 H         -5.1208875127        4.3824218731        1.1595366444
 H         -5.1219889983        3.9226223704       -0.5285002834
 H         -5.1310336470        2.2281262853        1.9594780355
 H         -6.0746368530        2.0557651428        0.4852211381
 O         -4.0147344955        0.2916039708        1.5257521102
 C         -3.2380934918       -0.8507663412        1.4312041347
 O         -3.1746279378       -1.5201082394        2.4838507416
 O         -2.1759467787       -0.4934938778       -2.0067966363
 C         -1.7695845349       -2.3829358714        0.1183944507
 C         -0.3489256212       -2.0312797018       -0.2551135057
 C          0.4031861449       -2.7693725928       -1.1595385594
 C          1.7090188379       -2.4089980675       -1.4449587695
 C          2.2924906099       -1.3114568152       -0.8400142175
 C          1.5544267678       -0.5734813587        0.0762537814
 C          0.2504300655       -0.9426819171        0.3666492429
 H         -0.3206669206       -0.3684055440        1.0875588819
 N          2.1368982801        0.5502878588        0.6918327309
 S          3.6026479556        0.3291138698        1.4847781624
 O          3.7363947747       -1.0227141321        1.9769043581
 O          3.6596778260        1.3825355826        2.4749267954
 C          4.8242188960        0.6463135118        0.2293466904
 C          4.7904193090        1.8653049146       -0.4191349762
 C          5.7417972517        2.1322984250       -1.3905837419
 C          6.7067298005        1.1828395888       -1.6929781014
 C          6.7286168892       -0.0350729352       -1.0307896209
 C          5.7790315819       -0.3091109996       -0.0586298032
 H          5.7529287586       -1.2435504057        0.4788381110
 H          7.4795079615       -0.7716813778       -1.2673219753
 H          7.4461028015        1.3939151553       -2.4493293915
 H          5.7276770808        3.0780374023       -1.9079860945
 H          4.0264922905        2.5763325776       -0.1518934890
 H          1.4971227122        1.0621495870        1.2822821405
 H          3.3055493481       -1.0220886817       -1.0669804501
 H          2.2791526995       -2.9894436453       -2.1540269170
 H         -0.0345866680       -3.6265291204       -1.6440765975
 H         -1.7538096029       -2.8195369342        1.1286976035
 C         -2.4142345402       -3.3736627955       -0.8295402025
 C         -2.2537963815       -4.8472972635       -0.6112963642
 C         -3.5719064131       -4.1886152250       -0.3394522627
 H         -4.3940083114       -4.3762657197       -1.0136042116
 H         -3.8743646837       -4.0488178031        0.6886282380
 H         -2.1742777186       -5.4910034742       -1.4743476370
 H         -1.6646167460       -5.1672830470        0.2350029746
 H         -2.4561095307       -3.0053193364       -1.8480052074
