  62
        -98.93973287
 C          2.5571725515        0.3874821648        0.0431827839
 C          2.1788660852        1.4142395800       -0.8523198077
 C          1.4044249874        2.5190067819       -0.2751085462
 C          1.1220079976        2.5144636746        1.0400026951
 C          0.3148856530        3.5466406732        1.7792456268
 C         -1.1790549986        3.5787531637        1.3990589087
 C         -1.5357449692        4.6444211981        0.3551344678
 H         -2.4890750113        5.0997427733        0.6310616687
 H         -0.7864821856        5.4363910502        0.3939423684
 C         -1.6802538205        4.1528529628       -1.0885771585
 H         -2.6492171523        3.6613476094       -1.2039427913
 H         -1.6744338094        5.0299793734       -1.7401056872
 C         -0.6187094512        3.1671329432       -1.5803162214
 H         -0.8292120798        2.1693890738       -1.1843281767
 H         -0.7127097123        3.0810497914       -2.6653708102
 C          0.8343679292        3.5365253405       -1.2202729130
 H          0.8846888586        4.5361382886       -0.7910482251
 H          1.4543803714        3.5117122717       -2.1190493062
 H         -1.4784255600        2.5858529959        1.0588450475
 H         -1.7389145583        3.7913848465        2.3113424842
 H          0.7585868958        4.5320162140        1.6218302695
 H          0.4124405739        3.2958238567        2.8371282452
 O          1.5668195714        1.5438636671        1.8815307528
 C          2.2326872345        0.4301577277        1.3991624696
 O          2.4986059769       -0.4246502223        2.2672253106
 O          2.4644576528        1.3993761829       -2.0820056679
 C          3.1837493726       -0.8819718453       -0.5084583786
 C          2.2253949066       -2.0173282041       -0.2360904144
 C          2.5962779549       -3.2353642184        0.3164885162
 C          1.6341621736       -4.1831564363        0.6240999816
 C          0.2919929133       -3.9306712055        0.4107140957
 C         -0.0863969503       -2.7228439325       -0.1669758813
 C          0.8816387330       -1.7982429895       -0.5152841565
 H          0.5762301667       -0.8659398098       -0.9693197709
 N         -1.4379999634       -2.4233410779       -0.4115573710
 S         -1.9141591288       -0.8028143010       -0.3614345177
 O         -1.6778985932       -0.2218541393       -1.6595633120
 O         -1.3223391986       -0.1224492604        0.7678926265
 C         -3.6690406610       -0.9979255753       -0.1126559922
 C         -4.4641133566       -1.2989627080       -1.2025637614
 C         -5.8232994534       -1.4867200210       -1.0083065577
 C         -6.3618105138       -1.3711207929        0.2648509745
 C         -5.5520380149       -1.0652395368        1.3482801261
 C         -4.1912674339       -0.8780577862        1.1611045610
 H         -3.5227386067       -0.6321538369        1.9709620774
 H         -5.9732503832       -0.9716693049        2.3362545928
 H         -7.4200051462       -1.5170129861        0.4133790153
 H         -6.4564363728       -1.7210383196       -1.8487020816
 H         -4.0007096192       -1.3680613999       -2.1728761168
 H         -2.0732735238       -3.0200214912        0.1002267192
 H         -0.4576887973       -4.6557814611        0.6884966577
 H          1.9338307257       -5.1232070964        1.0621520405
 H          3.6343741143       -3.4350085924        0.5261113147
 H          3.2519699120       -0.7305020009       -1.5962982312
 C          4.5728598772       -1.1068729233        0.0466738603
 C          5.5867062944       -1.8743709533       -0.7469405842
 C          5.7291741909       -0.3919362940       -0.5833000286
 H          6.5115141008       -0.0141076628        0.0574676710
 H          5.5151713366        0.2419188822       -1.4315078832
 H          6.2768817060       -2.5148052523       -0.2189653085
 H          5.2842796225       -2.2498647093       -1.7128099496
 H          4.5753133112       -1.2113033962        1.1256657392
