  62
        -98.94278559
 C          1.7013381097        1.3884551896       -0.0755301901
 C          1.9259629798        0.2841345695       -0.9338671599
 C          3.3261995599       -0.1462192803       -1.0630952499
 C          4.3004632198        0.5227490200       -0.4218588202
 C          5.7723688099        0.2155503503       -0.4747063702
 C          6.2164069702       -0.8730717494        0.5117569200
 C          5.7881704004       -2.2952351196        0.1475112003
 H          6.0867062403       -2.5123743897       -0.8785251897
 H          6.3431478206       -2.9733815894        0.7987958004
 C          4.2869521905       -2.5692115598        0.3168377405
 H          3.8431384904       -1.7978201298        0.9507598303
 H          4.1460327907       -3.5231474798        0.8301810907
 C          3.5030525104       -2.6424645003       -0.9939419395
 H          2.4477639504       -2.8024804904       -0.7552756793
 H          3.8475313605       -3.4979281503       -1.5796743993
 C          3.6053109701       -1.3823170304       -1.8634616597
 H          4.5896906800       -1.3237123703       -2.3276507398
 H          2.8491480000       -1.4481364407       -2.6497836196
 H          7.3075209002       -0.8462718392        0.5573513299
 H          5.8355315202       -0.6213429593        1.5041827899
 H          6.0506342698       -0.0742109299       -1.4882378502
 H          6.2923864497        1.1419927404       -0.2218563105
 O          4.0474885797        1.6046860401        0.3611308496
 C          2.7511144296        2.0385908899        0.5792457697
 O          2.6640150995        3.0102398101        1.3570341595
 O          1.0238428199       -0.3166411108       -1.5726447697
 C          0.3034712196        1.9112904094        0.2222741499
 C         -0.3740840701        0.9524521894        1.1716111001
 C         -0.2324329301        1.1549458297        2.5422646601
 C         -0.7973114598        0.2784465198        3.4487574803
 C         -1.5262234396       -0.8106630404        3.0059821406
 C         -1.6655541797       -1.0285325707        1.6395282607
 C         -1.0932861000       -0.1489902208        0.7288261104
 H         -1.1746823900       -0.3619934210       -0.3243567395
 N         -2.3856902695       -2.1361127909        1.1794376509
 S         -3.1877904097       -2.1402989814       -0.2793473290
 O         -4.2157723695       -3.1470618815       -0.1023040287
 O         -2.2789422397       -2.3703233614       -1.3724607590
 C         -3.9626771700       -0.5412536216       -0.4433865892
 C         -4.6295949500        0.0002393585        0.6375016107
 C         -5.2779410002        1.2150652984        0.4847454405
 C         -5.2628835105        1.8577569981       -0.7432625996
 C         -4.5944542404        1.2976723280       -1.8208820096
 C         -3.9328385502        0.0891284482       -1.6701426794
 H         -3.3886392802       -0.3752905519       -2.4773085493
 H         -4.5877538906        1.7943445779       -2.7785487597
 H         -5.7731417507        2.8006178480       -0.8617018898
 H         -5.7960015603        1.6541480684        1.3219356105
 H         -4.6381628798       -0.5255760013        1.5780728408
 H         -2.8689922094       -2.6693678609        1.8860714411
 H         -1.9722430395       -1.4970515404        3.7094793408
 H         -0.6762289598        0.4470120201        4.5080197203
 H          0.3451197698        2.0015096399        2.8857669299
 H          0.4555009195        2.8576085695        0.7588745897
 C         -0.5043395106        2.1997691090       -1.0244422001
 C         -1.6459816307        3.1650983288       -0.9313053102
 C         -0.3934983809        3.5538360889       -1.6561892304
 H         -0.4180744510        3.6219475587       -2.7334096904
 H          0.2681697790        4.2696540691       -1.1898744806
 H         -2.5353972607        2.9670210785       -1.5080720601
 H         -1.8355206707        3.6187539289        0.0296950397
 H         -0.6053883904        1.3517601388       -1.6887878999
