  62
        -98.94457882
 C          1.9722822013        0.7883575796        0.5477365191
 C          1.9965174431        0.0958430909       -0.6864096847
 C          2.1589252442       -1.3614037556       -0.5992938942
 C          2.2035625537       -1.9479744332        0.6103995775
 C          2.4018586463       -3.4173602114        0.8446680297
 C          3.8906467217       -3.7628820921        0.9917548998
 C          4.7723264930       -3.1774211579       -0.1112702414
 H          4.7659400528       -2.0881121328       -0.0302212030
 H          5.7949982979       -3.5092307678        0.0800448612
 C          4.3606698520       -3.5813078447       -1.5337793602
 H          5.2568074141       -3.8609769405       -2.0915318515
 H          3.7137641031       -4.4583739534       -1.4968900452
 C          3.6670810278       -2.4751766647       -2.3312104832
 H          4.2682950273       -1.5634650630       -2.2922282130
 H          3.6161125505       -2.7901166943       -3.3767652159
 C          2.2395405795       -2.1277296462       -1.8892020378
 H          1.6354369009       -3.0358249710       -1.8338271578
 H          1.8011229027       -1.4739439304       -2.6490474549
 H          4.2408259259       -3.3766705914        1.9517482696
 H          3.9923699643       -4.8495223060        1.0042487143
 H          1.8793004649       -3.6905617202        1.7632064890
 H          1.9669842897       -3.9712357187        0.0147887465
 O          2.1231534973       -1.2542759356        1.7759103146
 C          2.0101457876        0.1262104191        1.7731264094
 O          1.9577490760        0.6416897337        2.9100623743
 O          1.8976469537        0.6668948788       -1.8046060285
 C          1.7996019754        2.2967244959        0.5610893135
 C          0.5081153261        2.6540843016       -0.1349005049
 C          0.3931198314        3.6758499198       -1.0680237055
 C         -0.8195323958        3.9197229573       -1.6899265691
 C         -1.9321164271        3.1513171418       -1.4032973270
 C         -1.8319033241        2.1401376151       -0.4532128005
 C         -0.6235386689        1.9130604579        0.1823296358
 H         -0.5550087315        1.1225520467        0.9170023850
 N         -2.9501978000        1.3589367268       -0.1109987973
 S         -2.7014274089       -0.2504053175        0.3352735748
 O         -2.3274654069       -0.2944769249        1.7278848054
 O         -1.8068474560       -0.9038075575       -0.5937457395
 C         -4.3606798651       -0.8779166528        0.1466519494
 C         -5.2816312812       -0.6172190301        1.1439751665
 C         -6.5832898263       -1.0663277495        0.9881200982
 C         -6.9408621948       -1.7643939822       -0.1560274415
 C         -6.0053444142       -2.0206410178       -1.1470364279
 C         -4.7018479785       -1.5726695862       -0.9981623258
 H         -3.9382387808       -1.7529646470       -1.7378837797
 H         -6.2849714643       -2.5661584529       -2.0338501865
 H         -7.9544918749       -2.1130694479       -0.2748164740
 H         -7.3123185920       -0.8709757915        1.7578461990
 H         -4.9534206339       -0.0793106332        2.0180523006
 H         -3.7039308587        1.4425091834       -0.7800674446
 H         -2.8705199593        3.3293867630       -1.9059164292
 H         -0.8942120718        4.7103514621       -2.4210956071
 H          1.2553094441        4.2714339690       -1.3194601252
 H          1.7090534406        2.5838274223        1.6195750605
 C          3.0170951341        2.9759746929       -0.0303526728
 C          3.4172369009        4.3448204423        0.4293460041
 C          4.2327418692        3.1524653089        0.8273227151
 H          5.2050620988        3.0163553077        0.3782528691
 H          4.1708242530        2.8045423620        1.8485389963
 H          3.8347010122        5.0300173245       -0.2928611456
 H          2.8077858906        4.8153042682        1.1860249541
 H          3.1715237082        2.7157418918       -1.0711906950
