  62
        -98.94347696
 C          1.9401244250        0.7778726007        0.5441304920
 C          2.1779057663        0.1538660202       -0.7037776175
 C          2.5138466397       -1.2735200018       -0.6465275508
 C          2.5154305117       -1.9137402024        0.5365799729
 C          2.8022150517       -3.3752890800        0.7520523683
 C          4.2968837098       -3.7119116391        0.8475932363
 C          5.0656073199       -3.6403563726       -0.4724134396
 H          6.0384152611       -4.1054168996       -0.3012883356
 H          4.5471411655       -4.2351497872       -1.2248894237
 C          5.2853017587       -2.2159815490       -1.0007679629
 H          5.1155236484       -1.4984246397       -0.1947091542
 H          6.3240534654       -2.1016511084       -1.3184140322
 C          4.4033702169       -1.8385075882       -2.1910229975
 H          4.6157166396       -0.8006432568       -2.4592527298
 H          4.6551625958       -2.4670831796       -3.0479093486
 C          2.8969667722       -1.9581443603       -1.9238199624
 H          2.3611723304       -1.4620229508       -2.7368123080
 H          2.5995769343       -3.0063186635       -1.8977496893
 H          4.7586265597       -3.0412951164        1.5759560266
 H          4.3763889905       -4.7299648889        1.2357075973
 H          2.3242425633       -3.6480110504        1.6956136167
 H          2.3444030106       -3.9582364762       -0.0476909746
 O          2.2300906720       -1.2876725513        1.7107153752
 C          1.9502086876        0.0685997069        1.7434783037
 O          1.7313686225        0.5212104961        2.8879836905
 O          2.1147452414        0.7553161892       -1.8080044357
 C          1.5934578601        2.2530629018        0.5959640597
 C          0.3355080403        2.5297592368       -0.1935735694
 C          0.1497606485        3.6901899779       -0.9345022350
 C         -1.0385397337        3.9050212047       -1.6112126108
 C         -2.0614239799        2.9769448259       -1.5624928530
 C         -1.8829834626        1.8083627336       -0.8283420388
 C         -0.6966324566        1.6015247969       -0.1447781713
 H         -0.5731170775        0.6964318164        0.4333366712
 N         -2.8851859026        0.8250638403       -0.8023947486
 S         -2.9514071540       -0.2912663524        0.4544279440
 O         -2.9257617830        0.3845941535        1.7333654352
 O         -1.9446030237       -1.3012979439        0.2382144377
 C         -4.5697276145       -0.9805543659        0.1617808650
 C         -5.6414742450       -0.5440797194        0.9173061692
 C         -6.9002275434       -1.0641899259        0.6592505718
 C         -7.0654908772       -2.0041545493       -0.3467461482
 C         -5.9801794043       -2.4331460238       -1.0966286323
 C         -4.7188620605       -1.9182250391       -0.8428100394
 H         -3.8444699265       -2.2262427896       -1.3923451101
 H         -6.1118547530       -3.1657877988       -1.8764007025
 H         -8.0458109835       -2.4070905947       -0.5460945185
 H         -7.7447514061       -0.7348899419        1.2427409909
 H         -5.4620281028        0.1823101534        1.6935544347
 H         -3.7986943345        1.1732433580       -1.0575058481
 H         -2.9857524275        3.1450997738       -2.0932881472
 H         -1.1703527398        4.8109926184       -2.1830390942
 H          0.9360082249        4.4257214029       -0.9822325534
 H          1.3808839474        2.4782154700        1.6527742516
 C          2.7776708983        3.0856125984        0.1464359274
 C          3.0321791072        4.4341585019        0.7478068314
 C          3.9222790456        3.2795852249        1.0935803730
 H          4.9273001301        3.2628477007        0.6996364112
 H          3.8301676000        2.8361278204        2.0749148110
 H          3.4309501021        5.2135582260        0.1161132528
 H          2.3439311443        4.7834061833        1.5028462821
 H          3.0137917730        2.9355440258       -0.9007329290
