  62
        -98.93762341
 C         -1.7416253525       -0.2754802906       -0.3436440461
 C         -2.9333447428       -0.6247808001       -1.0160814472
 C         -4.1932145140       -0.4815936859       -0.2605279503
 C         -4.1365214953       -0.0500702041        1.0135080960
 C         -5.2790178340        0.2050103261        1.9603508215
 C         -6.0258856313        1.5124775150        1.6495825187
 C         -6.3077077160        1.7566065300        0.1693253759
 H         -6.7327630990        2.7592365253        0.0733188118
 H         -5.3650306122        1.7508657151       -0.3808743823
 C         -7.2801272798        0.7740802382       -0.4788866503
 H         -7.4516689000        1.1150199881       -1.5031777130
 H         -8.2359017125        0.8151167663        0.0484329553
 C         -6.8196087733       -0.6838563988       -0.5351634024
 H         -6.9301853395       -1.1675110641        0.4316439935
 H         -7.4883140406       -1.2099407066       -1.2229404364
 C         -5.4040833210       -0.8852788448       -1.0671785632
 H         -5.2657156256       -1.9496895746       -1.2935461107
 H         -5.3075132547       -0.3730726653       -2.0313602969
 H         -5.4158891668        2.3431142061        2.0126029005
 H         -6.9643483729        1.5144935907        2.2065242536
 H         -5.9601687537       -0.6407893624        1.9595281265
 H         -4.8456869413        0.2817702426        2.9599567748
 O         -2.9591369061        0.2662133275        1.6251328208
 C         -1.7411482954        0.1655058522        0.9790290986
 O         -0.7584161116        0.4886659693        1.6719294170
 H          2.2265449182       -0.0937996197       -0.3483449715
 C          1.8122869624       -1.0403181633       -0.0461481196
 C          0.4944533074       -1.3503584789       -0.3399122868
 C         -0.0017610214       -2.5912438966        0.0532785509
 C          0.7961152031       -3.4865366330        0.7373043227
 C          2.1103615820       -3.1698031537        1.0348135688
 C          2.6191544852       -1.9398184309        0.6385193641
 N          3.9370323432       -1.5788867246        0.9472807103
 S          4.8466459509       -0.6601053828       -0.1084290530
 O          4.5727175555       -0.9990954302       -1.4855355756
 O          6.2131282856       -0.8560314582        0.3281949961
 C          4.3739336932        1.0259431802        0.2140541149
 C          4.0726471459        1.4108452269        1.5051085849
 C          3.7362020719        2.7331922844        1.7467108085
 C          3.7145577206        3.6448085391        0.7022785421
 C          4.0273375904        3.2442242115       -0.5874151265
 C          4.3610997582        1.9222970835       -0.8364635142
 H          4.6002976730        1.5641371039       -1.8253811706
 H          4.0097730687        3.9550457005       -1.3984360799
 H          3.4498842742        4.6727441563        0.8941130470
 H          3.4873081309        3.0469243228        2.7477608588
 H          4.0904982297        0.6774003268        2.2937941563
 H          4.4851344153       -2.2884865031        1.4100897206
 H          2.7348145731       -3.8670609501        1.5724625509
 H          0.3946987159       -4.4421593712        1.0398931706
 H         -1.0278784264       -2.8409104664       -0.1806800604
 C         -0.4170673499       -0.3983051159       -1.0732787935
 H         -0.6599045276       -0.8432223764       -2.0501363665
 C          0.1876650965        0.9715338691       -1.2984496727
 C          1.1023415484        1.2128029714       -2.4607343079
 C         -0.2813109066        1.7877635335       -2.4640376840
 H         -0.3975591803        2.8530746990       -2.3341932249
 H         -1.0203240507        1.3432663415       -3.1146685097
 H          1.9362399623        1.8846695298       -2.3254968949
 H          1.3130994731        0.3788259581       -3.1133520669
 H          0.3915402293        1.4940108468       -0.3700823701
 O         -2.9527866641       -1.0430044477       -2.2063490074
