  62
        -98.94674255
 C          1.6602810374        1.4275961548       -0.0297931734
 C          2.4951775002        0.8085002418        0.9297093405
 C          3.1172485528       -0.4534532408        0.5153789722
 C          2.8748003983       -0.9456855623       -0.7136803881
 C          3.4837697520       -2.1907620980       -1.3001363020
 C          2.7592443202       -3.4887582250       -0.9202532476
 C          2.9391021810       -3.9371650392        0.5300382264
 H          2.5582586664       -4.9577536138        0.6012514430
 H          4.0014705322       -3.9701041755        0.7736087564
 C          2.2011822214       -3.0621654871        1.5530120395
 H          1.4492288746       -2.4576475846        1.0391678412
 H          1.6682413218       -3.6988526675        2.2628743610
 C          3.1119590615       -2.1409353829        2.3652728840
 H          2.4887681542       -1.5388912931        3.0321039345
 H          3.7812373938       -2.7415446425        2.9854055655
 C          3.9601492460       -1.1843556793        1.5164010341
 H          4.4081389499       -0.4415195712        2.1811253028
 H          4.7587149173       -1.7325691592        1.0170984167
 H          1.6958264618       -3.3627680299       -1.1272955490
 H          3.1408730591       -4.2775914973       -1.5722972194
 H          3.4365965996       -2.0760738737       -2.3850471913
 H          4.5315249786       -2.2560446104       -1.0046406128
 O          2.0488424993       -0.3298704655       -1.5998110617
 C          1.4081534545        0.8586399298       -1.2787337975
 O          0.6636998510        1.2986985352       -2.1727992832
 O          2.7110519580        1.2888154243        2.0759835513
 C          0.9808484750        2.7382603979        0.3230207955
 C         -0.5169210798        2.5642620587        0.2832617887
 C         -1.3736558346        3.4249763156       -0.3888487271
 C         -2.7386265909        3.1894571563       -0.4003807069
 C         -3.2787006367        2.1019494412        0.2604525351
 C         -2.4299283939        1.2369292576        0.9413400073
 C         -1.0648266210        1.4751425848        0.9518445274
 H         -0.4059111744        0.7999043689        1.4843879704
 N         -2.9684608051        0.1239517605        1.6223104052
 S         -3.7570756890       -1.0432784699        0.7188125752
 O         -4.8705895736       -0.4325464222        0.0397233772
 O         -4.0756140403       -2.0992670630        1.6522057787
 C         -2.5659500306       -1.6339839965       -0.4709535069
 C         -2.2199098600       -0.8250058129       -1.5353563669
 C         -1.2755424998       -1.2790522925       -2.4422211831
 C         -0.7055850861       -2.5316132355       -2.2759460561
 C         -1.0653918833       -3.3336805069       -1.2029108344
 C         -1.9972484795       -2.8783637912       -0.2845696711
 H         -2.3039126064       -3.4666230865        0.5654207785
 H         -0.6246907744       -4.3103843328       -1.0779648441
 H          0.0243882825       -2.8798436446       -2.9903135817
 H         -0.9753025773       -0.6423827731       -3.2587082640
 H         -2.6834320680        0.1417428740       -1.6460609686
 H         -2.3008789982       -0.3287338965        2.2310966897
 H         -4.3364815373        1.8960866108        0.2438525981
 H         -3.3919545647        3.8640622978       -0.9327282649
 H         -0.9741065465        4.2779200541       -0.9119419281
 H          1.2725612497        2.9480351213        1.3631134016
 C          1.4899927514        3.8578306118       -0.5594997302
 C          1.4927132278        5.2705857922       -0.0591532217
 C          2.7841473705        4.5251569577       -0.2063066948
 H          3.4553165955        4.8045422441       -1.0045185430
 H          3.2877500997        4.1892936991        0.6885427897
 H          1.2793617889        6.0661735828       -0.7569800347
 H          1.1216442821        5.4484387837        0.9388960745
 H          1.2879641139        3.6852619707       -1.6105277172
