  62
        -98.93188659
 C          2.3890328687        0.5880912312        0.4288147393
 C          3.1867608820        0.4749561676       -0.7343631925
 C          4.2331375441       -0.5680907154       -0.7075568546
 C          4.3481458025       -1.3615045830        0.3702462903
 C          5.3602133867       -2.4478014063        0.6087107315
 C          6.5735333804       -1.9016331655        1.3801134697
 C          7.6723537818       -1.2971343457        0.5068647117
 H          8.4012098547       -0.8337700947        1.1758601617
 H          8.1844395950       -2.0980069444       -0.0306209850
 C          7.2010078934       -0.2514696460       -0.5071187342
 H          6.4773500202        0.4168207938       -0.0367585099
 H          8.0643901771        0.3545501163       -0.7887667871
 C          6.5939591091       -0.8708562692       -1.7748161597
 H          6.8237303761       -1.9359779146       -1.7954646765
 H          7.0722082466       -0.4345425896       -2.6542332426
 C          5.0817450320       -0.6648531297       -1.9463677337
 H          4.9006371861        0.2740100695       -2.4792336400
 H          4.6824888916       -1.4634222547       -2.5804912177
 H          7.0131078690       -2.7136149280        1.9629492102
 H          6.2103035260       -1.1516839636        2.0876197586
 H          5.6629078086       -2.9059150819       -0.3280896832
 H          4.8664779481       -3.2012480660        1.2259886781
 O          3.5425648462       -1.2335362348        1.4612748136
 C          2.5599369831       -0.2665931646        1.5208331128
 O          1.9104093495       -0.2590051846        2.5866824220
 O          3.0554212445        1.1995317166       -1.7536463567
 C          1.2731136682        1.6100660826        0.5781208851
 C         -0.0123662047        1.0394166496        0.0366715078
 C         -0.1093278959        0.6052803099       -1.2823066263
 C         -1.2927576190        0.0705601828       -1.7564662884
 C         -2.3958875444       -0.0535391059       -0.9290738618
 C         -2.3079432446        0.3701191150        0.3896952397
 C         -1.1209760698        0.9186883956        0.8606843217
 H         -1.0522521983        1.2370797937        1.8924556558
 N         -3.4112211179        0.2201465503        1.2433026846
 S         -4.9344364967        0.6713414246        0.7095902239
 O         -4.8601278151        1.7505718649       -0.2474623153
 O         -5.6912825235        0.9313795695        1.9143942629
 C         -5.5702197134       -0.7973497998       -0.0700557970
 C         -5.5571610413       -1.9754998988        0.6505130834
 C         -6.0592683712       -3.1250548001        0.0619546858
 C         -6.5664003475       -3.0767651732       -1.2281606938
 C         -6.5760000399       -1.8852903167       -1.9369072741
 C         -6.0739187156       -0.7318906906       -1.3543400832
 H         -6.0553713093        0.2151445399       -1.8699159466
 H         -6.9709651011       -1.8498720257       -2.9395265479
 H         -6.9561420388       -3.9733524600       -1.6837174402
 H         -6.0528200993       -4.0535665210        0.6098729731
 H         -5.1566503747       -1.9717628242        1.6506350472
 H         -3.2456429905        0.5224584417        2.1919199086
 H         -3.3181271185       -0.4737509099       -1.2954970335
 H         -1.3569833129       -0.2593327247       -2.7823159230
 H          0.7530341070        0.6929587733       -1.9256894092
 H          1.1464816793        1.7342758418        1.6653611211
 C          1.6258920365        2.9771197158        0.0076980529
 C          0.9064855147        3.6183827953       -1.1371748603
 C          0.7088088120        4.1395300027        0.2522915452
 H          1.1372424641        5.0936795704        0.5195545332
 H         -0.2374674281        3.9316176296        0.7304807035
 H          1.4945435224        4.1981449780       -1.8321188321
 H          0.0903978059        3.0848740832       -1.5981312688
 H          2.6892632641        3.1813431962        0.0746925940
