  62
        -98.94758529
 C          0.7609285806        1.2666494486        0.0655470813
 C          1.4730790749        0.5752073257        1.0732655128
 C          2.4060598094       -0.4575604781        0.6040431930
 C          2.4772710358       -0.7299280547       -0.7117093265
 C          3.4502095598       -1.6857308660       -1.3374544335
 C          4.7446798342       -0.9648064124       -1.7426023728
 C          5.3387357933       -0.0870914256       -0.6407605293
 H          6.2616105153        0.3460635255       -1.0327097365
 H          4.6568885960        0.7419467568       -0.4375575427
 C          5.6394141293       -0.8275814507        0.6699109820
 H          5.6751322398       -1.9023472829        0.4887108138
 H          6.6274132775       -0.5258546435        1.0240199051
 C          4.6531162295       -0.5376280168        1.8029679225
 H          4.5459105645        0.5428055854        1.9289492922
 H          5.0741201542       -0.9340645891        2.7308975278
 C          3.2545975190       -1.1458786467        1.6357165355
 H          3.3471385235       -2.2109441977        1.4162317109
 H          2.7249330873       -1.0316666628        2.5861488559
 H          5.4773304624       -1.7149242268       -2.0457164467
 H          4.5313651134       -0.3297621226       -2.6054211206
 H          3.6743026886       -2.4851314161       -0.6345991642
 H          2.9906188289       -2.1087135059       -2.2314441227
 O          1.7052608869       -0.1100647214       -1.6396042713
 C          0.8554408119        0.9259420540       -1.2838372440
 O          0.2511420547        1.4471161636       -2.2396065986
 H         -1.5426116304        0.1689552289        0.4576955581
 C         -2.1102724370        0.9756139629        0.0167112269
 C         -1.5352892597        2.2367043798       -0.0739904091
 C         -2.2819920533        3.2687783247       -0.6278785577
 C         -3.5644071543        3.0331624343       -1.0916996791
 C         -4.1294147038        1.7747534165       -1.0068146139
 C         -3.3926746537        0.7357023415       -0.4478647187
 N         -3.9210706506       -0.5586539643       -0.3827322810
 S         -3.4106540469       -1.6649417792        0.7500119527
 O         -4.4052273599       -2.7158006091        0.6898668915
 O         -3.2181230195       -1.0609046498        2.0481544358
 C         -1.8738640602       -2.3029840533        0.1198210780
 C         -1.7647167118       -2.5729074353       -1.2294961815
 C         -0.5941218449       -3.1411588443       -1.7048973662
 C          0.4362312152       -3.4392939961       -0.8270614732
 C          0.3136207056       -3.1559697602        0.5238098982
 C         -0.8509796406       -2.5803024300        1.0042327096
 H         -0.9806667241       -2.3321201942        2.0462118925
 H          1.1163259340       -3.3799817825        1.2073774521
 H          1.3401665041       -3.8961082962       -1.1968205833
 H         -0.4901648558       -3.3518366656       -2.7571597201
 H         -2.5868619627       -2.3336654669       -1.8834156677
 H         -4.8910235952       -0.6597978511       -0.6393324852
 H         -5.1275620152        1.5910562310       -1.3736778596
 H         -4.1325259007        3.8422332612       -1.5251765345
 H         -1.8591469693        4.2571201425       -0.7023741845
 C         -0.1368506157        2.4245423565        0.4578644326
 H         -0.1853630740        2.4016234512        1.5576183546
 C          0.4996388160        3.7312022471        0.0263259646
 C          0.2928630170        4.9816213993        0.8262981602
 C          1.6228066251        4.2917674535        0.8444909663
 H          2.4538776496        4.7547712007        0.3337494661
 H          1.9055274214        3.7465979823        1.7334021754
 H          0.2131930350        5.9223225855        0.3024582349
 H         -0.3238710273        4.9139570691        1.7098357860
 H          0.5747151325        3.8176641050       -1.0523126567
 O          1.3471890273        0.8211114192        2.3042881748
