  62
        -98.93941617
 C         -0.5052389463       -1.5428547513        0.5899268886
 C         -0.9008803903       -1.0248491079       -0.6646665886
 C         -2.0332917753       -0.0759275822       -0.6576183036
 C         -2.6515902818        0.2046388578        0.5050638135
 C         -3.8767640979        1.0375911133        0.8240498664
 C         -4.6122046428        1.7819631144       -0.2859560241
 C         -5.4818534143        0.8834910736       -1.1696458357
 H         -6.3738317362        0.6088754111       -0.6010607256
 H         -5.8070875235        1.4578808908       -2.0393024262
 C         -4.8308131747       -0.4138548590       -1.6444362088
 H         -4.4981951398       -0.9974170803       -0.7842943373
 H         -5.5941802758       -1.0031245413       -2.1596459339
 C         -3.6566662167       -0.2397324294       -2.6036615117
 H         -3.3418284946       -1.2329562195       -2.9356473087
 H         -3.9783480596        0.3196575472       -3.4849518883
 C         -2.4300748515        0.4610771945       -2.0038575038
 H         -1.5764676594        0.2780942481       -2.6649171611
 H         -2.5807470913        1.5372694620       -1.9630571367
 H         -3.9080911693        2.3539420767       -0.8837926059
 H         -5.2756328163        2.5034533617        0.1980803217
 H         -4.5790771399        0.3621551948        1.3243809894
 H         -3.5558142019        1.7530668302        1.5865817440
 O         -2.2071797675       -0.2975188888        1.6955324089
 C         -1.1354067042       -1.1653693379        1.7729024345
 O         -0.8484164758       -1.5295778601        2.9313686802
 H          1.4660892059       -0.0100045919        0.5750643609
 C          2.1970805861       -0.6913277682        0.1632456579
 C          1.9087481998       -2.0479535542        0.1068561354
 C          2.8642950484       -2.9064840135       -0.4263705778
 C          4.0697442835       -2.4147615497       -0.8932749984
 C          4.3457364920       -1.0605147665       -0.8463760745
 C          3.3981917818       -0.1935806799       -0.3172935117
 N          3.6457573719        1.1893809930       -0.2303563264
 S          2.4919362815        2.2356446158       -0.8487857650
 O          1.8438564557        1.6897406182       -2.0176419541
 O          3.2087359296        3.4789989770       -1.0538548270
 C          1.3102704637        2.4913830105        0.4555150191
 C          1.7242959040        2.5047355129        1.7726387549
 C          0.7937565207        2.7817972172        2.7612972156
 C         -0.5194876067        3.0643347592        2.4174144946
 C         -0.9145532628        3.0608449715        1.0892245109
 C          0.0055590735        2.7623670736        0.0975775193
 H         -0.2623712798        2.7240767252       -0.9463389709
 H         -1.9319428256        3.2919549068        0.8188940809
 H         -1.2384555247        3.2872908042        3.1900729706
 H          1.0950904630        2.7794173693        3.7965008411
 H          2.7538159758        2.2869507427        2.0043256516
 H          4.5670467515        1.4654586434       -0.5415523675
 H          5.2829707739       -0.6738431078       -1.2174528500
 H          4.8014403735       -3.0932036795       -1.3049880855
 H          2.6626798202       -3.9641660311       -0.4750106109
 C          0.6113707692       -2.5624026449        0.6824395026
 H          0.7710689095       -2.7362235357        1.7578290500
 C          0.1660352087       -3.8657192775        0.0442021993
 C          0.5714878308       -5.1843280478        0.6295441469
 C         -0.8433900496       -4.7097826964        0.7612405740
 H         -1.6121176844       -5.1997918823        0.1827135983
 H         -1.1792036417       -4.3616419800        1.7275652911
 H          0.7733955796       -6.0059690428       -0.0413484134
 H          1.1894101346       -5.1721766797        1.5147760910
 H          0.0771028705       -3.7880965209       -1.0335927599
 O         -0.3487583039       -1.3499394935       -1.7479743684
