  62
        -98.94463213
 C         -2.6231750803       -0.9340053054        0.2247054152
 C         -2.5007004143       -0.0521015337       -0.8767784125
 C         -2.9083944953        1.3399188935       -0.6355426682
 C         -3.4097404872        1.6900525889        0.5617155751
 C         -3.8137229948        3.0804248839        0.9549410923
 C         -2.6517135529        3.8315108184        1.6193134790
 C         -1.3365903374        3.7606800272        0.8419885304
 H         -0.9600606856        2.7343880993        0.8469141239
 H         -0.6063548191        4.3660989887        1.3837697571
 C         -1.4250593603        4.2520095612       -0.6093699186
 H         -0.5572294677        4.8816554609       -0.8167383017
 H         -2.3156186837        4.8684381256       -0.7413712770
 C         -1.4183949460        3.1348743634       -1.6549687314
 H         -0.5859909874        2.4541114966       -1.4501098612
 H         -1.2352473551        3.5861271569       -2.6344796460
 C         -2.7127909669        2.3167465870       -1.7600926211
 H         -2.6564393404        1.7184199390       -2.6742120929
 H         -3.5679364545        2.9907698770       -1.8433146481
 H         -2.4844450781        3.4041054160        2.6105383722
 H         -2.9439817023        4.8759143843        1.7435451982
 H         -4.1504654349        3.6188259225        0.0713395852
 H         -4.6401456836        3.0095671303        1.6642262768
 O         -3.5698089612        0.8048186470        1.5774370093
 C         -3.1476009868       -0.5057209343        1.4490904150
 O         -3.3040132009       -1.1936910213        2.4774977220
 H         -0.2651223773       -1.5134613220       -1.5604581357
 C          0.1791799969       -1.8399016313       -0.6321324542
 C         -0.6313503973       -2.3484602433        0.3730222181
 C         -0.0383650623       -2.7306931699        1.5710388689
 C          1.3263965893       -2.5949812441        1.7582345644
 C          2.1237787325       -2.0516765089        0.7656445318
 C          1.5376570112       -1.6645805089       -0.4312194615
 N          2.3295491697       -1.0240900931       -1.4187986229
 S          2.6389102540        0.5869448358       -1.0132094063
 O          1.5659559656        1.1502277363       -0.2247225601
 O          2.9453566647        1.2572467045       -2.2583591224
 C          4.1195078040        0.4620378058       -0.0334131559
 C          5.2726605983        0.0238329874       -0.6551976547
 C          6.4312591264       -0.0999776326        0.0945385677
 C          6.4165369487        0.2146240418        1.4455502364
 C          5.2510730472        0.6547683839        2.0542191386
 C          4.0882131113        0.7801971654        1.3096340266
 H          3.1567046507        1.1122268361        1.7399106213
 H          5.2413396316        0.8983587647        3.1045024915
 H          7.3188510420        0.1162898904        2.0281859369
 H          7.3395824747       -0.4419596691       -0.3747173035
 H          5.2376890004       -0.2048133417       -1.7072668032
 H          1.8795997381       -1.0336641175       -2.3254172191
 H          3.1834107515       -1.9183712307        0.9125916707
 H          1.7710698483       -2.8982369055        2.6937629553
 H         -0.6624287747       -3.1103665710        2.3673213088
 C         -2.1309881592       -2.3761675583        0.1999240895
 H         -2.5669156553       -2.8564877512        1.0856765671
 C         -2.5634632283       -3.1499411182       -1.0281870025
 C         -2.5347422688       -4.6473655003       -0.9853375279
 C         -3.8462673221       -3.9223712733       -0.9900930961
 H         -4.4532674895       -3.9545179144       -1.8823376721
 H         -4.4185528136       -3.8953546370       -0.0741422720
 H         -2.2185509346       -5.1142348719       -0.0648046370
 H         -2.2394174764       -5.1820942231       -1.8749187937
 H         -2.3071812162       -2.6659558988       -1.9609326134
 O         -2.0780999770       -0.3838256269       -2.0182431130
