  62
        -98.93643481
 C          1.1678838287        1.1990167239       -0.1596680730
 C          1.7937178999        0.3142281475        0.7511377361
 C          2.6671479173       -0.7201574043        0.1723348616
 C          2.8256908384       -0.7763524155       -1.1608120659
 C          3.6238671710       -1.7671111444       -1.9715330582
 C          5.0122935553       -2.1578430849       -1.4472363833
 C          5.7642674718       -1.0413870547       -0.7080792302
 H          6.7659839070       -0.9478515688       -1.1317232209
 H          5.2578796218       -0.0862058211       -0.8578395765
 C          5.9115195807       -1.3122175259        0.7911396581
 H          6.1816912495       -2.3610768391        0.9321771580
 H          6.7363565166       -0.7084092560        1.1771684901
 C          4.6810365538       -0.9930775508        1.6391561561
 H          4.8780499088       -1.3356901069        2.6577772929
 H          4.5366591257        0.0894738336        1.6877445976
 C          3.3619438513       -1.6176790181        1.1555553666
 H          2.6937955243       -1.6933787599        2.0169382217
 H          3.5243094271       -2.6132803994        0.7497845778
 H          4.9248356526       -3.0222866639       -0.7905167093
 H          5.5957774772       -2.4795789199       -2.3116499341
 H          3.7219195531       -1.3112744648       -2.9599353063
 H          3.0206099004       -2.6716815201       -2.0945203752
 O          2.2082275060        0.1003416053       -2.0035857158
 C          1.3724726490        1.1059313656       -1.5357530414
 O          0.8817535650        1.8158514687       -2.4341986593
 O          1.6228893694        0.3798472801        1.9962469144
 C          0.2439191962        2.2578426381        0.4003499432
 C         -1.2095422148        2.0301807777        0.0507621115
 C         -2.1825684588        2.9362438243        0.4656414903
 C         -3.5216407689        2.7130216537        0.2017185350
 C         -3.9277979127        1.5847092285       -0.4912032069
 C         -2.9658002854        0.6866737686       -0.9236846833
 C         -1.6247180556        0.9035711320       -0.6403840523
 H         -0.8946387376        0.1759737594       -0.9699668452
 N         -3.3685478699       -0.4881928057       -1.6107694807
 S         -3.9145923672       -1.6860713724       -0.5702534022
 O         -3.9724327327       -2.9007138151       -1.3516568283
 O         -5.1509645275       -1.2435855896        0.0209261083
 C         -2.6436322777       -1.8012267161        0.6754563119
 C         -2.7370565461       -1.0118689560        1.8038917912
 C         -1.6950493140       -1.0242936430        2.7164463893
 C         -0.5800637232       -1.8138380037        2.4835357375
 C         -0.4995929503       -2.5978880297        1.3431342762
 C         -1.5377583555       -2.5889333783        0.4257531239
 H         -1.5127114065       -3.1852767494       -0.4731154313
 H          0.3737051517       -3.2042456962        1.1614481807
 H          0.2366558255       -1.8028183341        3.1872989353
 H         -1.7462047077       -0.4089500506        3.5999462520
 H         -3.6184780794       -0.4076759479        1.9456977956
 H         -2.6256527317       -0.8737239778       -2.1781545480
 H         -4.9666865527        1.3809121290       -0.6921761090
 H         -4.2598744272        3.4236861220        0.5399496884
 H         -1.8829721124        3.8205483596        1.0050716789
 H          0.3355080122        2.1685027157        1.4935596778
 C          0.6899137098        3.6514530848       -0.0088610050
 C          0.6451789847        4.7900910957        0.9642581208
 C          1.9625097163        4.2025407530        0.5598448303
 H          2.6133332104        4.7715154169       -0.0868395769
 H          2.4884640557        3.5906058635        1.2784772945
 H          0.3859449002        5.7709473689        0.5956218264
 H          0.2991034811        4.5866967206        1.9665811706
 H          0.4821955812        3.8649754436       -1.0509334966
