  62
        -98.93236179
 C         -2.5614475901       -1.0265713308        0.4811281796
 C         -2.8086218402        0.2134681091        1.1221154199
 C         -4.0691336402        0.9019644890        0.7973749001
 C         -4.9096181903        0.3441725491       -0.0938131600
 C         -6.2744533103        0.7745122991       -0.5899041698
 C         -6.8106420804        2.1705246190       -0.2859405495
 C         -6.0782288606        3.3034193292       -1.0048996593
 H         -6.3180819806        3.2491550294       -2.0698484493
 H         -6.4599788506        4.2540652191       -0.6264381691
 C         -4.5570574206        3.2910080093       -0.8764744894
 H         -4.1654561607        4.1296761195       -1.4586694993
 H         -4.1579118105        2.3775720194       -1.3224352696
 C         -4.0196816605        3.4238995691        0.5467941406
 H         -4.4307383805        4.3218924890        1.0123365408
 H         -2.9354790605        3.5480780992        0.4786647905
 C         -4.2913286403        2.2256241889        1.4715326604
 H         -3.5773709803        2.2701078088        2.2991524003
 H         -5.2897596703        2.2762577687        1.8992521904
 H         -7.8509406704        2.1851314390       -0.6221659194
 H         -6.8249128104        2.3420015488        0.7863486906
 H         -6.2600353104        0.6238606793       -1.6741600898
 H         -6.9782119902        0.0374300190       -0.1876618299
 O         -4.6216906102       -0.8431528507       -0.6999060102
 C         -3.4587493701       -1.5529640607       -0.4464383904
 O         -3.3718215601       -2.6080695705       -1.1036801306
 O         -2.0093876602        0.7212996190        1.9546549899
 C         -1.2696909400       -1.7390673807        0.8441118094
 C         -0.2016667801       -1.4788492804       -0.1921820106
 C         -0.2727893201       -2.0287485702       -1.4677077307
 C          0.7221474998       -1.7747117399       -2.3943161307
 C          1.8032887997       -0.9729902499       -2.0729409506
 C          1.8832698798       -0.4175881702       -0.8031973605
 C          0.8850525998       -0.6776940004        0.1280437495
 H          0.9420499299       -0.2341870506        1.1132240496
 N          2.9682064397        0.4141937699       -0.4749139004
 S          4.5010791597       -0.0754398499       -0.9925442006
 O          4.6856273296        0.3654854704       -2.3525279106
 O          4.6702494999       -1.4920563599       -0.7594514009
 C          5.5543180497        0.8618356200        0.0971795495
 C          5.9392151496        2.1372078901       -0.2698200403
 C          6.7407540996        2.8684275400        0.5925240898
 C          7.1407560397        2.3161474698        1.8002215697
 C          6.7478119098        1.0339773197        2.1540435494
 C          5.9457646498        0.2975132198        1.2968125193
 H          5.6270300199       -0.7068415703        1.5261640092
 H          7.0634394099        0.6059304795        3.0918864593
 H          7.7659814997        2.8866667597        2.4687046197
 H          7.0514297195        3.8641039701        0.3199017500
 H          5.6127616995        2.5214287903       -1.2220368402
 H          2.9710228898        0.6740252697        0.5018766096
 H          2.5873769397       -0.7746940197       -2.7862051506
 H          0.6560047198       -2.2071407898       -3.3817301808
 H         -1.1220260701       -2.6398627702       -1.7313723208
 H         -0.9425170400       -1.2694998909        1.7817301695
 C         -1.4475117199       -3.2236549808        1.0922164691
 C         -0.4102784398       -3.9518274609        1.8914622489
 C         -1.7678464397       -3.7018902311        2.4751789491
 H         -2.4447319097       -4.5354702212        2.5867333589
 H         -1.8599407598       -2.9580908113        3.2532579792
 H         -0.1503833397       -4.9583797608        1.6020314687
 H          0.4202900702       -3.3772269409        2.2731110090
 H         -1.9090414299       -3.7493936807        0.2671831691
