  62
        -98.93958682
 C         -2.4871704788       -0.9554079802       -0.3961889088
 C         -3.7478656689       -1.1091103696        0.2306502713
 C         -4.8199736588       -0.2305451201       -0.2538072196
 C         -4.5549925388        0.6476568789       -1.2384565505
 C         -5.5381474087        1.6378532884       -1.7909066415
 C         -5.4641985788        2.9743564791       -1.0394445329
 C         -5.5059071188        2.8305561507        0.4818853773
 H         -4.6005191889        2.3186409010        0.8165572578
 H         -5.4791956489        3.8372637211        0.9045562563
 C         -6.7368796789        2.0845693212        1.0155580880
 H         -7.1339350389        2.6325007521        1.8726889074
 H         -7.5173991388        2.0650092205        0.2541358879
 C         -6.4572277789        0.6574941317        1.4905342694
 H         -7.3316291589        0.3059349723        2.0447131397
 H         -5.6115908589        0.6611553424        2.1830554594
 C         -6.1722769589       -0.3693189694        0.3870930004
 H         -6.1855728589       -1.3621823590        0.8462242314
 H         -6.9618043088       -0.3287439402       -0.3659569496
 H         -6.2934175787        3.6023372088       -1.3702378136
 H         -4.5305556887        3.4727714789       -1.3101365433
 H         -6.5418584487        1.2235427585       -1.7187904912
 H         -5.2995991487        1.8087242173       -2.8419586617
 O         -3.3335895887        0.7643730883       -1.8179977506
 C         -2.2660006888       -0.0211244013       -1.4080501497
 O         -1.2043809887        0.2024853581       -2.0196050399
 O         -3.9652992189       -1.9422873787        1.1511911321
 C         -1.3330712089       -1.8231083798        0.0764184321
 C         -0.2912498289       -0.9387683191        0.7156084013
 C         -0.5960403189       -0.3157767879        1.9233151307
 C          0.3141844410        0.5238647327        2.5354513999
 C          1.5466607211        0.7694435521        1.9541824997
 C          1.8603621611        0.1539874409        0.7508503103
 C          0.9475714611       -0.7005821097        0.1438496911
 H          1.2035613612       -1.1659460407       -0.7952485284
 N          3.1042788612        0.4150666902        0.1332975301
 S          4.4964241011       -0.0026752589        0.9946737906
 O          4.5784203411       -1.4407083487        1.1462940321
 O          4.5371786711        0.7633379623        2.2131825698
 C          5.7553007012        0.5681050000       -0.1288001499
 C          6.3975978612       -0.3360866609       -0.9521835990
 C          7.3529566012        0.1292064682       -1.8422051394
 C          7.6451113213        1.4835414882       -1.8949743807
 C          6.9915717412        2.3790747690       -1.0613743617
 C          6.0361254012        1.9201991999       -0.1690243013
 H          5.5078901612        2.5777944706        0.5011976481
 H          7.2231696512        3.4310919390       -1.1045084627
 H          8.3884447813        1.8431865275       -2.5888429411
 H          7.8643013313       -0.5646654124       -2.4898142687
 H          6.1446740212       -1.3811105208       -0.8714950079
 H          3.1516882312       -0.0240229007       -0.7777572794
 H          2.2679913011        1.4160691226        2.4256201691
 H          0.0633016110        0.9969195736        3.4731395094
 H         -1.5619627290       -0.5003677475        2.3739762208
 H         -1.7563239489       -2.4674261190        0.8600517728
 C         -0.8033765888       -2.6983431909       -1.0390224969
 C          0.0412879712       -3.8908446406       -0.7058398157
 C         -1.3571821888       -4.0796438311       -1.2098730556
 H         -1.4978733488       -4.4573605821       -2.2114528452
 H         -2.1143197789       -4.4034188604       -0.5109841053
 H          0.8621047812       -4.1430337612       -1.3601186954
 H          0.2379615411       -4.0857830795        0.3377644345
 H         -0.5700833688       -2.1430209818       -1.9400155875
