  62
        -98.94121235
 C          1.4832779196        1.5841939639       -0.2085910055
 C          2.6400977345        1.2598058096        0.5416445545
 C          3.4805596838        0.1548113396        0.0424483033
 C          3.1088296076       -0.4799420948       -1.0843956824
 C          3.7801245387       -1.6472845727       -1.7576757533
 C          3.5235496066       -2.9857425535       -1.0419100296
 C          3.5581601938       -2.9204548840        0.4832268669
 H          3.2162242393       -3.8858216103        0.8656198042
 H          2.8517468026       -2.1630574820        0.8283903949
 C          4.9331960162       -2.6471695630        1.0881760320
 H          5.6134460316       -3.4551506547        0.8086337803
 H          4.8226691791       -2.6677530336        2.1753661698
 C          5.5812834762       -1.3181355425        0.6992672118
 H          5.9549385443       -1.3523322166       -0.3205083495
 H          6.4539380491       -1.1804351272        1.3446645636
 C          4.6964095145       -0.0917552004        0.9019700981
 H          5.3187865282        0.8059360527        0.8011627702
 H          4.3372256413       -0.0781158311        1.9371364686
 H          4.2593092181       -3.7108377911       -1.3934709695
 H          2.5346813406       -3.3438566496       -1.3376782387
 H          4.8449945153       -1.4533081170       -1.8502192344
 H          3.3677743786       -1.7079810445       -2.7674541164
 O          1.9841162363       -0.1362828125       -1.7728858051
 C          1.1457627450        0.8870889167       -1.3674134406
 O          0.1669220359        1.0618256665       -2.1190644271
 O          2.9635657858        1.8685116420        1.5961916175
 C          0.5826957959        2.6903925490        0.3190714486
 C         -0.6712629119        2.0339684678        0.8399550219
 C         -0.7074714839        1.5528000414        2.1457283610
 C         -1.8044940347        0.8513065721        2.6112321204
 C         -2.8764917280        0.5892455480        1.7757170485
 C         -2.8409335867        1.0530986860        0.4676062288
 C         -1.7590479374        1.7942370916        0.0143123851
 H         -1.7438734486        2.1379522315       -1.0075525848
 N         -3.8911040277        0.7225807183       -0.4107183750
 S         -4.3006566552       -0.9024727217       -0.4569727267
 O         -4.7445818049       -1.1549137795       -1.8103375179
 O         -5.2725744326       -1.1744334351        0.5743408578
 C         -2.7988293816       -1.8046889073       -0.1047546572
 C         -1.6779663261       -1.5643172705       -0.8742227545
 C         -0.5107592728       -2.2534794284       -0.5880369657
 C         -0.4809309583       -3.1675240776        0.4531971853
 C         -1.6171389449       -3.4030885094        1.2115846028
 C         -2.7868849656       -2.7150927246        0.9329740712
 H         -3.6903789294       -2.8604596294        1.5026829283
 H         -1.5926177556       -4.1153158733        2.0205029811
 H          0.4340416948       -3.6950177653        0.6733049528
 H          0.3704715952       -2.0563782830       -1.1779506843
 H         -1.7037835461       -0.8404763982       -1.6738846545
 H         -3.7455582727        1.0726914371       -1.3473025218
 H         -3.7315168390        0.0239734139        2.1101004788
 H         -1.8209982486        0.4919010577        3.6286752920
 H          0.1457671981        1.7214629441        2.7872413784
 H          1.1231807358        3.1252568098        1.1698442898
 C          0.3291394586        3.7769467370       -0.7039987686
 C         -0.2606832086        5.0789105087       -0.2534336056
 C          1.1735799523        5.0142900318       -0.6822117846
 H          1.4523695770        5.4637260901       -1.6236078398
 H          1.9378641525        5.0853113294        0.0777293065
 H         -0.9692635449        5.5758497075       -0.8982903785
 H         -0.4706568750        5.1915310627        0.7994491545
 H          0.0380611542        3.3996949433       -1.6763506201
