  62
        -98.94643587
 C          1.1859733321        1.1181659961        0.5769589096
 C          1.6585958428        0.6253161648       -0.6638410421
 C          2.4595341295       -0.6046956105       -0.5910350554
 C          2.6021054040       -1.2447885017        0.5828144652
 C          3.3820088542       -2.5101375642        0.8155849375
 C          4.8827697638       -2.2778822029        1.0401776003
 C          5.6727871761       -1.8893897189       -0.2104493082
 H          6.7318755150       -1.9738304456        0.0411948988
 H          5.4700548339       -2.6079210289       -1.0052630507
 C          5.3991147165       -0.4664717169       -0.7176132910
 H          6.3467672247        0.0252239038       -0.9489393077
 H          4.9219267090        0.1170223357        0.0731229614
 C          4.5340676794       -0.3953901075       -1.9762806520
 H          4.3780961413        0.6577171491       -2.2235514040
 H          5.0629439937       -0.8614931517       -2.8106001036
 C          3.1575485279       -1.0596873719       -1.8370202235
 H          2.5460636622       -0.7587522706       -2.6908305837
 H          3.2641605287       -2.1439727609       -1.8453341067
 H          5.0080922828       -1.5075589885        1.8046488733
 H          5.3017407461       -3.2068353089        1.4338156317
 H          3.2465856935       -3.1926514266       -0.0234990057
 H          2.9663376430       -2.9721533001        1.7132889773
 O          2.0168749707       -0.8063130563        1.7292365648
 C          1.3286947248        0.3930795313        1.7608910795
 O          0.8826571435        0.6986486564        2.8871898389
 O          1.4417386234        1.1772717776       -1.7719322067
 C          0.4369881576        2.4395325675        0.6619115863
 C         -0.9347098514        2.2542317877        0.0616654276
 C         -1.3510457864        2.8396604041       -1.1255032149
 C         -2.6143089646        2.5762603510       -1.6301598885
 C         -3.4859289347        1.7347248364       -0.9631949751
 C         -3.0765816650        1.1459660558        0.2269855608
 C         -1.8122512053        1.4063128367        0.7284622257
 H         -1.4896996045        0.9417113835        1.6521421519
 N         -3.9537176600        0.2685702270        0.9073165471
 S         -4.2452665355       -1.1864002090        0.1304752626
 O         -4.9461455005       -0.9204887441       -1.0989799519
 O         -4.9309270776       -2.0162668920        1.0940587129
 C         -2.6295625685       -1.8569813368       -0.2177899832
 C         -2.0812040511       -2.7681091592        0.6622186892
 C         -0.8087548701       -3.2566842601        0.4145238910
 C         -0.1059674101       -2.8153705950       -0.6955170251
 C         -0.6632490880       -1.8869917097       -1.5606842075
 C         -1.9388574705       -1.4022725412       -1.3236655033
 H         -2.4052410850       -0.6877946909       -1.9820442867
 H         -0.1057047806       -1.5303778320       -2.4117474576
 H          0.8832460720       -3.1964192026       -0.8900803160
 H         -0.3681075490       -3.9751767247        1.0870086745
 H         -2.6642986508       -3.0871606165        1.5114883374
 H         -3.6527777254        0.0750602304        1.8530240876
 H         -4.4652803142        1.5070468223       -1.3516250801
 H         -2.9240672701        3.0342251751       -2.5572689636
 H         -0.6831461943        3.4912841133       -1.6636333873
 H          0.3040321832        2.6390315580        1.7346652270
 C          1.2325327610        3.5730614584        0.0527496466
 C          0.8972274203        4.9867269025        0.4183844219
 C          2.1612208654        4.3610467493        0.9248646098
 H          3.1026109353        4.6899165198        0.5108946415
 H          2.2158091089        4.0919988408        1.9700291099
 H          0.9709923936        5.7489697502       -0.3421061637
 H          0.0922191637        5.1427614270        1.1207147376
 H          1.5563807512        3.3713116340       -0.9604727071
