  62
        -98.93805505
 C         -1.8583997318       -1.2075206689        0.0827163688
 C         -2.4182236876       -0.3466510724        1.0570061162
 C         -3.7927820817        0.1252587095        0.8207117518
 C         -4.4257869611       -0.2342490239       -0.3119215332
 C         -5.8310214957        0.0452677313       -0.8027886767
 C         -6.6967621925        1.1081544243       -0.1319798826
 C         -6.2133612480        2.5440621516       -0.3333231623
 H         -6.3629858158        2.8167750166       -1.3810561979
 H         -6.8365696190        3.2041087936        0.2739018010
 C         -4.7458872404        2.7983502378        0.0018766965
 H         -4.1099064150        2.2093636167       -0.6624922265
 H         -4.5337802653        3.8514970605       -0.2022661871
 C         -4.3476178076        2.5172282936        1.4492974910
 H         -3.3269173330        2.8849764440        1.5862196450
 H         -4.9971792012        3.0777767599        2.1244942592
 C         -4.3670795073        1.0368540121        1.8670503376
 H         -5.3689492242        0.7189746974        2.1455803551
 H         -3.7315525643        0.9284206433        2.7508561038
 H         -7.6905490212        1.0292564719       -0.5810183748
 H         -6.8118436858        0.8881039444        0.9252626751
 H         -5.7336317167        0.2818585647       -1.8671257442
 H         -6.3575634784       -0.9140538720       -0.7486652963
 O         -3.8257100821       -1.0248930674       -1.2477036700
 C         -2.5412620509       -1.5224002986       -1.0909591656
 O         -2.1487132817       -2.2145608622       -2.0476812004
 O         -1.7971248564        0.0053955232        2.0968134359
 C         -0.4518428473       -1.7307131699        0.3210254860
 C          0.5087042267       -0.9652911278       -0.5546363147
 C          0.9623568668       -1.4364996966       -1.7799770092
 C          1.8363164923       -0.6784402637       -2.5403537584
 C          2.2864632195        0.5499327458       -2.0908974270
 C          1.8379440084        1.0281368833       -0.8665559356
 C          0.9533531256        0.2742268299       -0.1114369473
 H          0.5945175272        0.6510938988        0.8377836152
 N          2.3432571327        2.2534168807       -0.3778683190
 S          4.0074300042        2.2506721592       -0.1399407789
 O          4.2591249940        3.2312457890        0.8922897048
 O          4.6666270169        2.4764845309       -1.4010991150
 C          4.3528265260        0.6003394301        0.4442314807
 C          3.9479680189        0.2645235568        1.7209273076
 C          4.1093343210       -1.0414376367        2.1537949205
 C          4.6617661026       -1.9866060075        1.3028588016
 C          5.0679316026       -1.6323521930        0.0258643227
 C          4.9107477621       -0.3271786046       -0.4118325037
 H          5.2097191044       -0.0109220888       -1.3974540800
 H          5.4979204785       -2.3697389233       -0.6323741499
 H          4.7760484133       -3.0054524716        1.6384084096
 H          3.7958568125       -1.3187271075        3.1477421634
 H          3.5228357632        1.0256835000        2.3559718129
 H          1.8794788702        2.5583231458        0.4666948799
 H          2.9829839415        1.1434849653       -2.6610143440
 H          2.1763470042       -1.0526313274       -3.4938805362
 H          0.6138726408       -2.3884706430       -2.1444105862
 H         -0.2258111966       -1.4707419821        1.3642586876
 C         -0.3399532859       -3.2318645224        0.1631803085
 C          0.9014706032       -3.9130332785        0.6549946087
 C         -0.3950739927       -4.1009269103        1.3821033761
 H         -0.8946515766       -5.0553903038        1.3100153110
 H         -0.5211851263       -3.6151474638        2.3386440341
 H          1.2961366642       -4.7398842263        0.0853781717
 H          1.6566902331       -3.2917357322        1.1129150502
 H         -0.8069531037       -3.6094825147       -0.7373110104
