  62
        -98.93864964
 C         -0.8959956306       -1.5921963595       -0.0647206290
 C         -1.5691296206       -0.8078185987        0.9066014103
 C         -2.5044580102        0.2070738913        0.4053084394
 C         -2.6559871897        0.3663523605       -0.9215529407
 C         -3.4902961292        1.4102901004       -1.6163656616
 C         -5.0146291793        1.3253302610       -1.4090241620
 C         -5.5447616994        2.1884461218       -0.2573782227
 H         -4.8433538892        3.0047638717       -0.0804383130
 H         -6.4866120891        2.6458798719       -0.5669928733
 C         -5.8155695500        1.4505765827        1.0569662677
 H         -6.7559422901        0.9015797229        0.9699364677
 H         -5.9434010400        2.1998640132        1.8410433872
 C         -4.7421082804        0.4538700226        1.4934594186
 H         -4.9598887208        0.1469808933        2.5183216287
 H         -4.8077692205       -0.4478868377        0.8801838291
 C         -3.2980353202        0.9861813921        1.4139842187
 H         -3.2901002899        2.0480599020        1.1715176581
 H         -2.8013618706        0.8459624626        2.3761309290
 H         -5.4770218289        1.6708743705       -2.3350702824
 H         -5.3055102596        0.2840014511       -1.2728844315
 H         -3.2664632889        1.2966035897       -2.6794668815
 H         -3.1358786690        2.3974809805       -1.3091762621
 O         -1.9991303297       -0.4097845002       -1.8240002600
 C         -1.1080049601       -1.4016122402       -1.4319670092
 O         -0.6012934600       -2.0161560310       -2.3903487886
 O         -1.3847784711       -0.9424862880        2.1461195505
 C          0.1037436090       -2.6016333395        0.4668836719
 C          1.4921850291       -2.0089409198        0.5659094020
 C          2.3335897987       -2.3548021094        1.6181192225
 C          3.6032422288       -1.8155249298        1.7127846725
 C          4.0480577294       -0.8964573005        0.7789173321
 C          3.2140038298       -0.5399405008       -0.2732654984
 C          1.9552057097       -1.1131772005       -0.3855397684
 H          1.3351644900       -0.8398234608       -1.2249165488
 N          3.6124157104        0.4190477785       -1.2243839288
 S          2.5768996409        1.7099308086       -1.4927827199
 O          1.4321475810        1.2952617885       -2.2611697500
 O          3.4153198714        2.7251616580       -2.0943108902
 C          2.0861288505        2.2124317998        0.1457526596
 C          0.9094436202        1.7274314204        0.6780091996
 C          0.5880950099        2.0356799713        1.9902890193
 C          1.4426078099        2.8279258715        2.7409506891
 C          2.6154313702        3.3205242908        2.1877741891
 C          2.9477757205        3.0037022099        0.8809456394
 H          3.8481768608        3.3659996394        0.4118271095
 H          3.2734059102        3.9419208610        2.7735028590
 H          1.1894928997        3.0619331222        3.7628687789
 H         -0.3177958704        1.6336505418        2.4157380593
 H          0.2624187702        1.1161722303        0.0680126597
 H          4.5556761905        0.7576255283       -1.0929746687
 H          5.0299246395       -0.4563366207        0.8620021422
 H          4.2467412185       -2.0968324595        2.5319077729
 H          1.9822145582       -3.0442480689        2.3703815428
 H         -0.2283900414       -2.8293436987        1.4898029020
 C          0.1556516688       -3.8983163399       -0.3178928273
 C          0.5182544882       -5.1742249496        0.3786031536
 C         -0.8896833816       -4.9451367395       -0.0808375670
 H         -1.2602526515       -5.5005962499       -0.9290218968
 H         -1.6422814217       -4.7370187988        0.6658607027
 H          1.1219832182       -5.8935631301       -0.1527646858
 H          0.7125413279       -5.1341686291        1.4392566036
 H          0.4991837292       -3.7643358607       -1.3357433873
