  62
        -98.94149401
 C         -2.5681461342       -0.0890188189        0.1134834228
 C         -2.5362166283        1.0546173972        0.9493544869
 C         -2.1481552171        2.3158877210        0.3117076432
 C         -1.8341115645        2.3299079658       -0.9960658598
 C         -1.3968501985        3.5303722404       -1.7900041310
 C          0.1032673452        3.8282712579       -1.6591072961
 C          0.5252765965        4.4535216560       -0.3287037220
 H          1.5382388297        4.8381560037       -0.4625771252
 H         -0.1209045399        5.3027518375       -0.1021204264
 C          0.5276956833        3.4745449267        0.8538336997
 H          1.4442102694        3.6058424400        1.4352307399
 H          0.5454944900        2.4475318707        0.4793487089
 C         -0.6437120333        3.6379470470        1.8232059495
 H         -0.5684495661        4.6043435422        2.3280733695
 H         -0.5650202507        2.8537317285        2.5812673963
 C         -2.0305199297        3.5354462315        1.1755011509
 H         -2.7731525537        3.4503034163        1.9731690567
 H         -2.2409287500        4.4333160057        0.5944735515
 H          0.3730413350        4.5159224916       -2.4641920997
 H          0.6561409388        2.8972367101       -1.8084582690
 H         -1.9745343290        4.4051263359       -1.4895090718
 H         -1.6159426753        3.3082248626       -2.8365548243
 O         -1.8913058555        1.2168865582       -1.7709097913
 C         -2.2029632419       -0.0234498848       -1.2330201466
 O         -2.1358274155       -0.9570501498       -2.0549097551
 O         -2.8109277759        1.0186871256        2.1808381967
 C         -2.8247615135       -1.4338644289        0.7709746646
 C         -1.7051833506       -2.3809115115        0.4114905730
 C         -1.8860008797       -3.7003057311        0.0231146241
 C         -0.7918839674       -4.4920917502       -0.2880801943
 C          0.4923356772       -3.9849529625       -0.2443255330
 C          0.6826961691       -2.6580043766        0.1327283953
 C         -0.4074369806       -1.8876565664        0.4908814680
 H         -0.2478731734       -0.8676782928        0.8118660071
 N          1.9668299927       -2.0857533584        0.1066742420
 S          2.2093047315       -0.4603487556        0.4297909591
 O          1.9750103290       -0.1623112620        1.8280534143
 O          1.4690708342        0.3180586989       -0.5304501604
 C          3.9548671886       -0.3550688857        0.0851048564
 C          4.8597315724       -0.3734854718        1.1291828270
 C          6.2154563844       -0.3278188062        0.8435730654
 C          6.6409682895       -0.2670171578       -0.4747111580
 C          5.7209341827       -0.2465874944       -1.5126986718
 C          4.3644015078       -0.2916223472       -1.2332352461
 H          3.6117039467       -0.2710676794       -2.0045734252
 H          6.0548434170       -0.1957807268       -2.5365031794
 H          7.6961291451       -0.2323660146       -0.6951851395
 H          6.9325657312       -0.3400979759        1.6484545934
 H          4.4809646800       -0.4131079619        2.1378098379
 H          2.7132756118       -2.6850078545        0.4244501075
 H          1.3399821873       -4.5962728017       -0.5111391200
 H         -0.9463779309       -5.5185156574       -0.5847320239
 H         -2.8808586140       -4.1075624106       -0.0527188316
 H         -2.7438535571       -1.2208380731        1.8518813501
 C         -4.2147588973       -2.0114108125        0.5518861538
 C         -5.3555652961       -1.1425740632        0.1157992904
 C         -4.8060848282       -2.1798833189       -0.8144508233
 H         -5.4031156279       -3.0590352762       -1.0083772977
 H         -4.2119956625       -1.8554670669       -1.6537745904
 H         -6.3249941061       -1.3073253900        0.5619576897
 H         -5.1403210304       -0.1044961786       -0.0939867230
 H         -4.4550495515       -2.7781741391        1.2822272277
