  62
        -98.94224702
 C         -2.1141469394       -1.1458013105        0.1005015698
 C         -1.5213483799       -0.2680178706       -0.8349560406
 C         -2.0487731604        1.1091942592       -0.8886274309
 C         -3.0616365103        1.4472692591       -0.0696190008
 C         -3.7773252807        2.7677871289        0.0559833489
 C         -2.9651328509        3.8255754294        0.8131953084
 C         -1.5235534011        3.9794233398        0.3377217181
 H         -1.0458258512        4.7346244701        0.9687497778
 H         -0.9817735507        3.0457248900        0.5011094183
 C         -1.3664266015        4.4184631194       -1.1171156421
 H         -1.9336241519        5.3382498891       -1.2780185922
 H         -0.3082774716        4.6494304997       -1.2642266924
 C         -1.7738383814        3.3918976089       -2.1796762117
 H         -1.3012050117        3.6926068688       -3.1189550219
 H         -2.8465984614        3.4023775185       -2.3570763715
 C         -1.3113893009        1.9691813392       -1.8847588313
 H         -1.3050362609        1.3951568389       -2.8185716611
 H         -0.2686666408        1.9918425596       -1.5451411615
 H         -3.4840581313        4.7825401992        0.7249299682
 H         -2.9429429206        3.5497916598        1.8707483085
 H         -4.0596755511        3.1372295485       -0.9254453511
 H         -4.6952223306        2.5694136588        0.6147454292
 O         -3.6000402498        0.5638718792        0.8236055296
 C         -3.1276578594       -0.7260257906        0.9570054599
 O         -3.6826930990       -1.3940813205        1.8561244402
 H         -0.2632189691       -0.9435691893        1.8605939394
 C          0.4137518310       -1.5936073493        1.3184680095
 C         -0.1039023589       -2.5353118797        0.4371422899
 C          0.7840174013       -3.3620022596       -0.2392181601
 C          2.1507584013       -3.2159471691       -0.0720725804
 C          2.6603114211       -2.2294627487        0.7527220592
 C          1.7788877910       -1.4176051587        1.4529799791
 N          2.3063558807       -0.3392451883        2.2255874287
 S          2.2066298901        1.0974778714        1.3339128382
 O          2.8340914099        2.1120237518        2.1556916578
 O          0.8425240699        1.3836524308        0.9451330784
 C          3.2202209999        0.7318012213       -0.0776662318
 C          4.5827871299        0.9320021918        0.0335942378
 C          5.3978867598        0.6003919217       -1.0360719322
 C          4.8378788097        0.0718482911       -2.1899037920
 C          3.4687247398       -0.1242746493       -2.2827642116
 C          2.6445772099        0.2056426507       -1.2171911116
 H          1.5761826999        0.0523215903       -1.2610327513
 H          3.0296576097       -0.5391615298       -3.1757755714
 H          5.4719383296       -0.1903719289       -3.0222148420
 H          6.4631515197        0.7511578021       -0.9665186325
 H          4.9673704099        1.3468176022        0.9508577576
 H          1.7956236909       -0.1954869082        3.0877182787
 H          3.7216450411       -2.0750081083        0.8590146989
 H          2.8265892714       -3.8608736590       -0.6117516603
 H          0.4036152514       -4.1106118400       -0.9148830098
 C         -1.5987473689       -2.5683840603        0.2370851902
 H         -2.0692069286       -2.9795154801        1.1425500704
 C         -2.0276486189       -3.3949096508       -0.9578419995
 C         -2.2642318683       -4.8678700708       -0.8157008890
 C         -3.4239411787       -3.9363453413       -0.9964620790
 H         -3.9500653689       -3.9399187917       -1.9391948089
 H         -4.0568355786       -3.7294073412       -0.1454378990
 H         -1.9979753083       -5.5148660810       -1.6377607488
 H         -2.1164715380       -5.3069955005        0.1593012511
 H         -1.6075318292       -3.0275134909       -1.8871594497
 O         -0.5891820699       -0.6176705405       -1.6059705607
