  62
        -98.94075016
 C         -1.0255114697       -1.4900831015       -0.0605730037
 C         -1.6076301382       -0.6647728198        0.9328606551
 C         -2.4880758109        0.4251610938        0.4775689547
 C         -2.6933248960        0.5927663869       -0.8420852063
 C         -3.4623893284        1.6499521464       -1.6068907026
 C         -4.4223922364        2.5919984828       -0.8854848541
 C         -5.6776915338        1.9181017999       -0.3316159535
 H         -6.2312665715        2.6541192241        0.2552541609
 H         -6.3091047694        1.6192900770       -1.1721268006
 C         -5.4334470212        0.6784212485        0.5248049059
 H         -6.4070343236        0.2879559466        0.8331280563
 H         -4.9535752923       -0.0945273507       -0.0790753436
 C         -4.6050424879        0.9101018026        1.7864548937
 H         -4.6400939514       -0.0102956624        2.3753594158
 H         -5.0580425057        1.7052807479        2.3815553145
 C         -3.1237126245        1.2554625129        1.5559360077
 H         -2.9901228280        2.3158379652        1.3539434039
 H         -2.5816633266        1.0250564598        2.4776443112
 H         -3.8991281190        3.1331782518       -0.1026546055
 H         -4.7423756769        3.3338331554       -1.6222911913
 H         -2.6990210451        2.2500131077       -2.1163914326
 H         -4.0056196525        1.1159228618       -2.3934461233
 O         -2.1274481304       -0.2371235935       -1.7644469246
 C         -1.2808338127       -1.2799409507       -1.4161518241
 O         -0.8540643108       -1.9190838963       -2.3970881680
 H          1.1526697542       -0.7862079877       -1.2601841633
 C          1.8160510835       -1.1697714422       -0.5012077620
 C          1.3624429657       -2.0943065990        0.4262515344
 C          2.2614503894       -2.5828916543        1.3692573205
 C          3.5760575396       -2.1551821281        1.3794111452
 C          4.0146074849       -1.2064832108        0.4721825259
 C          3.1242261322       -0.7072928619       -0.4695963517
 N          3.5140181545        0.2875029446       -1.3866194949
 S          2.5606774655        1.6639411682       -1.4760278370
 O          1.3298609173        1.3892123039       -2.1714424928
 O          3.4220892449        2.6604691244       -2.0763119170
 C          2.2422389908        2.0740186052        0.2291330632
 C          3.2222732535        2.7357942703        0.9437836047
 C          3.0221892240        2.9717285277        2.2939373495
 C          1.8608913539        2.5265296221        2.9083699484
 C          0.8866938055        1.8646354300        2.1776040654
 C          1.0754889688        1.6398564820        0.8233291723
 H          0.3326235808        1.1313482584        0.2285000501
 H         -0.0123578528        1.4981084789        2.6476418386
 H          1.7106797922        2.6960687802        3.9628235803
 H          3.7738464165        3.4924536693        2.8649213924
 H          4.1097009069        3.0641086711        0.4272392417
 H          4.4885373707        0.5470162330       -1.3195725219
 H          5.0341090510       -0.8530859661        0.4920356165
 H          4.2628336794       -2.5476588838        2.1132310027
 H          1.9211120953       -3.2970690255        2.1030617544
 C         -0.0751054791       -2.5673847642        0.4240216455
 H         -0.3578950840       -2.7567538773        1.4694313240
 C         -0.1859659267       -3.8708313794       -0.3444280850
 C          0.0816488392       -5.1729396013        0.3463632625
 C         -1.3174280510       -4.8067905635       -0.0462816536
 H         -1.7836875032       -5.3266865411       -0.8694252318
 H         -2.0073023552       -4.5203781156        0.7343369023
 H          0.5838751814       -5.9516555596       -0.2065469502
 H          0.3286633529       -5.1486976926        1.3964178236
 H          0.1174340115       -3.7776082734       -1.3796135085
 O         -1.3881881312       -0.8229095784        2.1642630616
