  62
        -98.94496011
 C         -1.8505895599       -1.2576883596       -0.0379181798
 C         -3.0800871398       -0.9359678094        0.5852559505
 C         -3.8731254797        0.1155475707       -0.0618068393
 C         -3.4149030299        0.7034224507       -1.1820444993
 C         -4.1197167098        1.7727705409       -1.9722404991
 C         -3.9111776495        3.1941595308       -1.4316451791
 C         -4.6514884291        3.5123939409       -0.1318566489
 H         -4.5945195589        4.5931012209        0.0129828311
 H         -5.7050942192        3.2540875211       -0.2421750687
 C         -4.0770795790        2.8179036607        1.1109289909
 H         -3.0665271391        2.4624717206        0.8945245907
 H         -3.9922083287        3.5403718907        1.9259993709
 C         -4.9141000191        1.6474155508        1.6272927010
 H         -5.8825827589        2.0152695010        1.9730550713
 H         -4.3965764990        1.2071965007        2.4836717209
 C         -5.1526205695        0.5375993609        0.5951245910
 H         -5.5608630995       -0.3319363690        1.1162200811
 H         -5.8738724696        0.8678315411       -0.1521844588
 H         -2.8406599594        3.3634149706       -1.2916618593
 H         -4.2577355095        3.8888287909       -2.2002317490
 H         -3.7149158001        1.7279163008       -2.9856097392
 H         -5.1868203999        1.5526469311       -2.0147649989
 O         -2.2280588100        0.3656359205       -1.7524353896
 C         -1.4132588801       -0.6154382396       -1.1971086898
 O         -0.3512812603       -0.8049211198       -1.8162885401
 H         -0.1880546894        0.1688002000        1.1353720999
 C          0.6340443905       -0.5348501301        1.1797024697
 C          0.4004735102       -1.8754278201        0.9096218697
 C          1.4754145100       -2.7558404403        0.9778237494
 C          2.7402289902       -2.3032266905        1.3096737992
 C          2.9707436005       -0.9623885105        1.5570766492
 C          1.9081508806       -0.0722313404        1.4740344094
 N          2.1395405809        1.3006066396        1.6614502495
 S          3.4917427408        1.9628164094        0.9247382392
 O          4.6195734910        1.8495878292        1.8176514889
 O          3.1080002010        3.3144480495        0.5774798793
 C          3.8060926603        0.9969043494       -0.5443940309
 C          2.7671144001        0.7255389896       -1.4114737407
 C          3.0145959797       -0.0456723904       -2.5352152808
 C          4.2943686796       -0.5179238606       -2.7811798811
 C          5.3317369398       -0.2239384708       -1.9094220413
 C          5.0866580502        0.5352875892       -0.7769271512
 H          5.8585698504        0.7720659390       -0.0626311614
 H          6.3266982897       -0.5910819210       -2.1032454916
 H          4.4811880793       -1.1210420906       -3.6556390112
 H          2.1927614195       -0.2845857902       -3.1910199706
 H          1.7716845302        1.0874807198       -1.2088367405
 H          1.3265792109        1.8768100398        1.5005129497
 H          3.9506915006       -0.5897467807        1.8086880390
 H          3.5604689701       -3.0017733906        1.3670446189
 H          1.3193103998       -3.8015167602        0.7696189394
 C         -0.9921737700       -2.3493683898        0.5687562200
 H         -1.4965787998       -2.6269963598        1.5073303701
 C         -0.9777533004       -3.5596847498       -0.3473625401
 C         -0.9981354805       -4.9492880098        0.2138829399
 C         -2.2171307506       -4.3949926795       -0.4577283098
 H         -2.4977085109       -4.7789693994       -1.4269950398
 H         -3.0581280404       -4.1136936594        0.1595136004
 H         -0.4397182908       -5.7192481499       -0.2970011403
 H         -1.0229312003       -5.0578740398        1.2878276799
 H         -0.4123775206       -3.3822911798       -1.2553941002
 O         -3.4957611196       -1.5021426094        1.6323836306
