  62
        -98.93955172
 C          2.1209758276        1.0226516034        0.0214337757
 C          2.8572687287        0.3515410254        1.0230994406
 C          3.5829055113       -0.8625891792        0.6103180841
 C          3.4912431233       -1.2836954214       -0.6652033942
 C          4.0734185566       -2.4988464584       -1.3573136350
 C          5.1866819733       -3.3138009240       -0.7038031184
 C          6.5227855296       -2.5830892089       -0.5745061909
 H          7.2065777740       -3.2205632139       -0.0099258548
 H          6.9423936743       -2.4482446561       -1.5745403229
 C          6.4616745537       -1.2093169127        0.0884743083
 H          5.8599626811       -0.5335732840       -0.5227295685
 H          7.4768972919       -0.8043019004        0.1116962115
 C          5.9243413339       -1.1966230371        1.5181119348
 H          6.0861777034       -0.1934201635        1.9213153141
 H          6.4923898920       -1.8989553554        2.1310492809
 C          4.4267992751       -1.5175450371        1.6660120812
 H          4.2514898517       -2.5906972544        1.6866299086
 H          4.0876545677       -1.1121772621        2.6239557864
 H          5.3481262258       -4.1860624487       -1.3430956617
 H          4.8615441162       -3.6891892284        0.2620835901
 H          4.4149076162       -2.1470232600       -2.3360631133
 H          3.2237548319       -3.1637842077       -1.5503408269
 O          2.7358759975       -0.6205637189       -1.5901839371
 C          2.0403891383        0.5376139198       -1.2827038297
 O          1.4079697127        1.0254777575       -2.2376099633
 O          2.8977553964        0.7410340812        2.2222661886
 C          1.3523992347        2.2808237349        0.3841670555
 C         -0.1220886547        2.0517192898        0.1591098963
 C         -0.9322090226        2.9031298122       -0.5793318191
 C         -2.2712477587        2.6058105874       -0.7687419408
 C         -2.8315832031        1.4660133649       -0.2228775414
 C         -2.0318536649        0.6114796374        0.5252346739
 C         -0.6929812678        0.9123153209        0.7142158954
 H         -0.0691536430        0.2410709658        1.2927719081
 N         -2.5952094486       -0.5470838800        1.0950043288
 S         -3.3749893415       -1.6111650068        0.0516218083
 O         -3.3019752843       -2.9003780358        0.7056522008
 O         -2.8345539684       -1.5377819478       -1.2863881905
 C         -5.0649348437       -1.0507196370        0.0648445948
 C         -5.7187288200       -0.9824368340        1.2797401777
 C         -7.0361277139       -0.5536696121        1.3066450584
 C         -7.6743087188       -0.2054982308        0.1252892788
 C         -7.0048425999       -0.2825027231       -1.0864352264
 C         -5.6863336720       -0.7097906027       -1.1204200597
 H         -5.1228042909       -0.7803416881       -2.0373005133
 H         -7.5023381366       -0.0118129856       -2.0038814296
 H         -8.6997134819        0.1280728450        0.1487789391
 H         -7.5600090988       -0.4922147549        2.2468596037
 H         -5.1869248649       -1.2657428495        2.1726266699
 H         -1.9480971157       -1.0555109505        1.6813337475
 H         -3.8718738966        1.2284627547       -0.3744315130
 H         -2.8870913160        3.2720099161       -1.3533347071
 H         -0.5134595272        3.7932106476       -1.0188661826
 H          1.5160959671        2.4224605690        1.4628793081
 C          1.9068971288        3.4792741035       -0.3554242890
 C          1.7739887898        4.8526241906        0.2297545993
 C          3.1112757673        4.1776750191        0.1986628947
 H          3.8590810243        4.5402500466       -0.4905437057
 H          3.5189529011        3.8025025517        1.1260924524
 H          1.6054397304        5.6836084896       -0.4382492185
 H          1.2745752619        4.9428900215        1.1823749976
 H          1.8438216983        3.3694198242       -1.4322072857
