  62
        -98.93852264
 C         -1.9125160510       -1.1538711484       -0.0525417900
 C         -2.4755381608       -0.4110982684        1.0166820001
 C         -3.0924691605        0.8847568117        0.6907514902
 C         -3.0936804305        1.3062692919       -0.5872843697
 C         -3.5829285003        2.5940051120       -1.2168053496
 C         -4.4607462800        3.5630101521       -0.4294880395
 C         -5.8673794901        3.0467194024       -0.1270964294
 H         -6.3616580199        3.7655059024        0.5298031007
 H         -6.4302204602        3.0089488126       -1.0631153594
 C         -5.9377091404        1.6605000424        0.5082551604
 H         -6.9927805204        1.4098335626        0.6469776005
 H         -5.5184383906        0.9215845123       -0.1776075697
 C         -5.2469822503        1.5272300921        1.8636684004
 H         -5.6336442902        2.2836393521        2.5492274105
 H         -5.5038377105        0.5450294321        2.2690289703
 C         -3.7124842403        1.6297537418        1.8382282203
 H         -3.3271335104        1.1616429516        2.7486704903
 H         -3.3847753401        2.6667355517        1.8420415704
 H         -3.9575333499        3.8656210419        0.4840951205
 H         -4.5632027799        4.4604059722       -1.0457101294
 H         -2.6769872202        3.1231078719       -1.5346388696
 H         -4.1041334904        2.3008602422       -2.1339805796
 O         -2.5474315207        0.5553454818       -1.5861070098
 C         -1.9326925310       -0.6635413083       -1.3563629700
 O         -1.4711551611       -1.1827791583       -2.3948675600
 O         -2.4561732008       -0.8169866385        2.2095233500
 C         -1.2247003013       -2.4584184586        0.3195166698
 C          0.2501240388       -2.1966976389        0.5109372798
 C          0.8641577388       -2.3745526392        1.7449357997
 C          2.2009622989       -2.0606868395        1.9210622197
 C          2.9455857890       -1.5413937196        0.8763636597
 C          2.3373746189       -1.3572593193       -0.3576186702
 C          1.0097893489       -1.7037693990       -0.5409353702
 H          0.5475210888       -1.5441412788       -1.5042025102
 N          3.0736581490       -0.7434592894       -1.4079927302
 S          3.0143411694        0.9406757006       -1.2794065501
 O          1.7144752395        1.3944114909       -0.8314227000
 O          3.4636354194        1.4502028407       -2.5568617000
 C          4.2361689395        1.2803589203       -0.0320494401
 C          3.8281564296        1.6058727802        1.2464677100
 C          4.7904429597        1.8384066899        2.2167263099
 C          6.1351820797        1.7414002797        1.8922998999
 C          6.5281176396        1.4152931497        0.6025858598
 C          5.5713079795        1.1800253200       -0.3718710802
 H          5.8280476894        0.9290594801       -1.3875287602
 H          7.5746719995        1.3429026295        0.3543848298
 H          6.8811027498        1.9223027995        2.6500528398
 H          4.4859413798        2.0912092499        3.2195753300
 H          2.7709657797        1.6669671804        1.4514611200
 H          2.7058645189       -0.9893369692       -2.3185698902
 H          3.9827272290       -1.2783178198        1.0059244797
 H          2.6635945589       -2.2071742697        2.8848133097
 H          0.2779501188       -2.7399714591        2.5752905597
 H         -1.6452267613       -2.7414541086        1.2938034898
 C         -1.4649171515       -3.5918180685       -0.6562984603
 C         -1.2711004018       -5.0024144986       -0.1890675104
 C         -2.6509297917       -4.4866226882       -0.4640952203
 H         -3.1732232918       -4.8415360281       -1.3397443103
 H         -3.2976507216       -4.2847549282        0.3772757197
 H         -0.8426194620       -5.7164488486       -0.8752998205
 H         -0.9833298018       -5.1528240787        0.8402531996
 H         -1.1838872215       -3.3534580884       -1.6737115803
