  62
        -98.94512187
 C          1.5109681362        1.4887202278       -0.3495053463
 C          2.7649402154        1.3966386563        0.3081839740
 C          3.6670404563        0.3426369040       -0.1665644350
 C          3.2897717398       -0.4471974601       -1.1881128599
 C          4.0992447549       -1.5613887400       -1.7940532419
 C          3.9783418581       -2.8965892497       -1.0466006953
 C          4.6937282832       -2.9531122349        0.3036308370
 H          5.7293378094       -2.6359099174        0.1775245371
 H          4.7097024627       -3.9997717007        0.6138155360
 C          4.0290558998       -2.1205416256        1.4090556290
 H          3.9691867316       -2.7130411361        2.3246005096
 H          3.0042986758       -1.8772472019        1.1186637341
 C          4.7646424615       -0.8260206381        1.7561571671
 H          5.7464480434       -1.0621794458        2.1724112972
 H          4.1905349689       -0.3018334205        2.5242886136
 C          4.9542655288        0.1311411987        0.5715669385
 H          5.7216674111       -0.2498344354       -0.1018761122
 H          5.2788129566        1.0992963549        0.9605653600
 H          4.4018596623       -3.6700720359       -1.6913483360
 H          2.9193206062       -3.1250294131       -0.9067476449
 H          5.1474641619       -1.2662543950       -1.8472806397
 H          3.7254526182       -1.7000125886       -2.8109528908
 O          2.0940048535       -0.3047631486       -1.8167661276
 C          1.1677450314        0.6437002096       -1.4032716182
 O          0.1077496628        0.6238826387       -2.0583573872
 O          3.1114171588        2.1591215560        1.2487776899
 C          0.5149298784        2.5143197919        0.1689874590
 C         -0.5175316696        1.7900183891        1.0008011888
 C         -0.1658450170        1.3981567237        2.2912596588
 C         -1.0605501245        0.7194795220        3.0946117674
 C         -2.3246341421        0.4108219752        2.6231209278
 C         -2.6839281512        0.7881573861        1.3352880357
 C         -1.7836459688        1.4752268562        0.5294904310
 H         -2.0834681235        1.7439560147       -0.4700118883
 N         -3.9711993715        0.4929195093        0.8447042455
 S         -4.1098193112       -0.3780700970       -0.5808753636
 O         -3.7156862621        0.4374548812       -1.6979825503
 O         -5.4806682615       -0.8445355953       -0.5841477951
 C         -3.0069694010       -1.7590632344       -0.3453274552
 C         -3.4815705769       -2.8638307013        0.3361385808
 C         -2.6138068690       -3.9078928712        0.6097053645
 C         -1.2880366340       -3.8259279329        0.2095833573
 C         -0.8304527276       -2.7106182991       -0.4736105687
 C         -1.6941060514       -1.6632198707       -0.7564605330
 H         -1.3606058723       -0.7871896612       -1.2911075818
 H          0.1980804998       -2.6377526891       -0.7932100676
 H         -0.6087039328       -4.6347855243        0.4285283910
 H         -2.9694126676       -4.7790747155        1.1359068818
 H         -4.5206451568       -2.8894255369        0.6227102550
 H         -4.5804562481        0.0861722575        1.5413721325
 H         -3.0310696005       -0.1145121798        3.2479332927
 H         -0.7744517388        0.4281767074        4.0937261824
 H          0.8249812188        1.6355648342        2.6523133038
 H          1.0953331316        3.1537378073        0.8493617102
 C         -0.0733618405        3.3845597110       -0.9188820427
 C         -0.7373243796        4.6727390075       -0.5374640337
 C          0.5845339777        4.6910904479       -1.2429780784
 H          0.6162138986        5.0092471170       -2.2742998919
 H          1.4619934205        4.9643662711       -0.6749681713
 H         -1.6177211331        4.9783042654       -1.0820788651
 H         -0.7562173722        4.9326834339        0.5102982646
 H         -0.4937623022        2.8262984711       -1.7460405929
