  62
        -98.93820241
 C          2.6186598999        1.0033018934        0.5443863790
 C          2.7929614583       -0.2188151611        1.2450558302
 C          4.0050801013       -0.9852550742        0.9339835835
 C          4.8699376605       -0.5006786021        0.0244727175
 C          6.1228792023       -1.1937450716       -0.4248542070
 C          5.8594459714       -2.0809444762       -1.6493654679
 C          4.6521250466       -3.0055497867       -1.4929693663
 H          3.7440076786       -2.4002814419       -1.4391828431
 H          4.5827802261       -3.6063910425       -2.4024077392
 C          4.7166405024       -3.9325816935       -0.2710129611
 H          4.4187093654       -4.9372455112       -0.5783083702
 H          5.7431088732       -3.9961771599        0.0918831202
 C          3.7956600264       -3.5280553672        0.8816881172
 H          3.7533182668       -4.3596291452        1.5901853242
 H          2.7829730154       -3.3689439843        0.5024096838
 C          4.2178445326       -2.2798514825        1.6670360702
 H          3.5922866240       -2.2232561617        2.5626073445
 H          5.2590880911       -2.3775028933        1.9809420215
 H          6.7536550250       -2.6761901937       -1.8431914429
 H          5.6863447052       -1.4356698636       -2.5137824965
 H          6.5132206751       -1.7938703419        0.3948148145
 H          6.8595815885       -0.4335364049       -0.6899144813
 O          4.6717564398        0.6705559443       -0.6280831741
 C          3.5427560344        1.4465098109       -0.4025433171
 O          3.5073299147        2.4807060960       -1.0963314035
 O          1.9714259809       -0.6438265588        2.1018648351
 C          1.3655483159        1.8006447149        0.8665207975
 C          0.3033298403        1.5571137787       -0.1796154123
 C          0.3762615093        2.1257220282       -1.4466508059
 C         -0.6144180162        1.8798309971       -2.3802657054
 C         -1.6924705504        1.0677696192       -2.0748667149
 C         -1.7726155056        0.4914208767       -0.8143842404
 C         -0.7791209240        0.7431470824        0.1236396332
 H         -0.8359376011        0.2846334766        1.1021383458
 N         -2.8556985350       -0.3505495378       -0.5012678607
 S         -4.3929300841        0.1829054853       -0.9617930363
 O         -4.6036614881       -0.1716931916       -2.3429426920
 O         -4.5456985851        1.5838569135       -0.6393024914
 C         -5.4334374767       -0.8136313971        0.0864025463
 C         -5.8557545799       -0.2990939611        1.2976888946
 C         -6.6445752586       -1.0861828314        2.1217089804
 C         -6.9928860881       -2.3683303197        1.7239315714
 C         -6.5614844941       -2.8705207650        0.5051151462
 C         -5.7732199955       -2.0885648264       -0.3242020994
 H         -5.4225008450       -2.4331292692       -1.2829475915
 H         -6.8371273851       -3.8666897954        0.1987183171
 H         -7.6071020720       -2.9787071630        2.3669763833
 H         -6.9840264584       -0.6974010376        3.0682916271
 H         -5.5692806638        0.7064142081        1.5618383944
 H         -2.8452090314       -0.6374585404        0.4681991371
 H         -2.4743653894        0.8779736467       -2.7927741957
 H         -0.5473537425        2.3273156226       -3.3608483688
 H          1.2241145033        2.7427638066       -1.6998122643
 H          0.9996226578        1.3792811530        1.8127644789
 C          1.6228128781        3.2795191321        1.0734786570
 C          0.5936351621        4.0961305689        1.7940358345
 C          1.9027807611        3.7871683842        2.4547662636
 H          2.6224106670        4.5830391894        2.5739499140
 H          1.9105296613        3.0677896237        3.2606987205
 H          0.4104072677        5.1053291372        1.4587533980
 H         -0.2888494910        3.5858332407        2.1499392546
 H          2.1560316926        3.7474680802        0.2570133203
