  62
        -98.93354498
 C         -2.0193782303       -0.5839699502        1.0070619587
 C         -2.8614557805       -1.0689518397       -0.0229276714
 C         -4.2612304605       -0.6005964298        0.0068613090
 C         -4.6640682603        0.2422365998        0.9715134095
 C         -6.0408833903        0.8097242397        1.2108183999
 C         -6.8267705405        1.3056580103       -0.0110297497
 C         -5.9699369506        1.8987643807       -1.1389810696
 H         -6.3751013507        2.8738142809       -1.4163869791
 H         -4.9485561606        2.0592256606       -0.7891981397
 C         -5.9482899608        1.0248904213       -2.3955019000
 H         -6.9609798709        0.6637387313       -2.5880087000
 H         -5.6548234310        1.6431806716       -3.2473657098
 C         -4.9921262708       -0.1661511388       -2.3500391606
 H         -3.9587680308        0.1890818813       -2.3853128907
 H         -5.1562424510       -0.7634387784       -3.2501369109
 C         -5.1302047606       -1.0792363693       -1.1207336610
 H         -6.1692667906       -1.1749934794       -0.8155647009
 H         -4.7536368507       -2.0685882492       -1.3940500515
 H         -7.5260387004        2.0616875501        0.3503049707
 H         -7.4275456305        0.4910941704       -0.4133947800
 H         -5.8884053302        1.6370919194        1.9081019303
 H         -6.6338159002        0.0537464195        1.7340200897
 O         -3.8166323601        0.6897660594        1.9420143995
 C         -2.4913988901        0.2995590694        1.9799997592
 O         -1.8393299000        0.7932460190        2.9233827193
 O         -2.4903977206       -1.8591288194       -0.9265370318
 C         -0.5529652903       -0.9627394902        1.1329439983
 C          0.3080317196       -0.0410537499        0.3085769486
 C          0.0463780994        0.1755985407       -1.0407479213
 C          0.8495943393        1.0198998310       -1.7853350411
 C          1.9335653194        1.6557232408       -1.2052319810
 C          2.2088101596        1.4386034702        0.1378183889
 C          1.3964536597        0.5962516999        0.8858379587
 H          1.6055485899        0.4454514494        1.9364419986
 N          3.3391517097        2.0520081799        0.7162984690
 S          4.8089522295        1.6547044102        0.0070665586
 O          5.8096089997        1.9230164898        1.0144155785
 O          4.9458813193        2.3710386408       -1.2350019212
 C          4.6701214795       -0.0963387696       -0.2996447322
 C          4.8580572797       -0.9608495001        0.7607092274
 C          4.6492994796       -2.3164247500        0.5659516869
 C          4.2432099794       -2.7803979295       -0.6759624632
 C          4.0626203293       -1.9000819990       -1.7309872028
 C          4.2773231993       -0.5437488391       -1.5448767823
 H          4.1508813292        0.1713603912       -2.3406571720
 H          3.7479344191       -2.2643777186       -2.6955944329
 H          4.0633077594       -3.8335356094       -0.8205778536
 H          4.7934972298       -3.0050468203        1.3829770066
 H          5.1742984398       -0.5609610205        1.7110791476
 H          3.3941714398        1.9243173195        1.7169737989
 H          2.5752383693        2.3109511310       -1.7720649108
 H          0.6315051091        1.1832694514       -2.8298943810
 H         -0.7879620807       -0.3330180091       -1.4987643014
 H         -0.3058601901       -0.7863142807        2.1916927183
 C         -0.2850049203       -2.4348484601        0.8437366476
 C          0.5506905895       -2.9168394096       -0.3005801027
 C          1.0812865697       -3.0007407902        1.0965901672
 H          1.1615394998       -3.9681378204        1.5681729268
 H          1.8606641898       -2.3061407803        1.3731102273
 H          0.2381862694       -3.8232858194       -0.7954729130
 H          0.9837527594       -2.1848433093       -0.9637956725
 H         -1.1278729103       -3.0599590002        1.1183534075
