  62
        -98.94494493
 C         -2.1668704259       -0.8751677640       -0.0705747601
 C         -2.9919025314       -0.5050617549        1.0243702001
 C         -3.7370513754        0.7517849619        0.8871997251
 C         -3.5768064723        1.4895338973       -0.2262031441
 C         -4.2972284991        2.7732340383       -0.5177217189
 C         -5.6041207391        2.5177105415       -1.2814839076
 C         -6.4814189341        1.4327641800       -0.6568599519
 H         -7.3883603196        1.3607154126       -1.2609376665
 H         -5.9670635301        0.4720851894       -0.7329169494
 C         -6.8612276439        1.6891168992        0.8082157300
 H         -6.7060713906        2.7405508493        1.0525697226
 H         -7.9254365340        1.4802132303        0.9354481557
 C         -6.1124730481        0.8184404138        1.8189808166
 H         -6.6072852835        0.9212281442        2.7882813937
 H         -6.1860164319       -0.2310554571        1.5234224132
 C         -4.6309015676        1.1583634787        2.0250047210
 H         -4.2785988653        0.5987901424        2.8963520142
 H         -4.5232728075        2.2243794897        2.2357725355
 H         -6.1614661902        3.4547156627       -1.3338608557
 H         -5.3549562430        2.2129863167       -2.3006104632
 H         -3.6451845593        3.4012226377       -1.1275103993
 H         -4.5053490599        3.2863608717        0.4192531370
 O         -2.7628193181        1.1172896797       -1.2448189128
 C         -2.0420488278       -0.0674410869       -1.2009047275
 O         -1.3553004931       -0.2650585399       -2.2239588662
 O         -3.1008263387       -1.2004863454        2.0689312497
 C         -1.3752350581       -2.1668315254        0.0716630940
 C          0.0513037022       -1.8203269607        0.4238441874
 C          0.4858134162       -1.8887847987        1.7432405998
 C          1.7692681531       -1.5011622737        2.0845563471
 C          2.6409708055       -1.0258308224        1.1208351800
 C          2.2110473464       -0.9405225335       -0.1964559090
 C          0.9331881500       -1.3542122386       -0.5409239253
 H          0.6021188940       -1.2607657787       -1.5640258435
 N          3.0809298850       -0.4190174974       -1.1774211899
 S          3.6034871061        1.1595941015       -0.9116686548
 O          2.6497653006        1.9098578821       -0.1256553019
 O          3.9196001917        1.6885195262       -2.2208636867
 C          5.1167399714        0.9486888543        0.0040547324
 C          5.2555241086        1.5284161888        1.2498302900
 C          6.4445761361        1.3540118343        1.9410670338
 C          7.4677767848        0.6076136301        1.3769238526
 C          7.3132201836        0.0337777254        0.1235636737
 C          6.1277420512        0.2051368195       -0.5731240521
 H          5.9667836715       -0.2191622177       -1.5499961725
 H          8.1112812466       -0.5456300375       -0.3118506877
 H          8.3912542333        0.4727377103        1.9174915995
 H          6.5662314010        1.7996338050        2.9152757261
 H          4.4294959892        2.0946759361        1.6498919671
 H          2.6947941104       -0.4871657619       -2.1095640451
 H          3.6384278459       -0.7103665949        1.3804385163
 H          2.0924448716       -1.5628900977        3.1125047644
 H         -0.2020743333       -2.2283555585        2.5042112487
 H         -1.8185960759       -2.6802762992        0.9351635291
 C         -1.4813163088       -3.0761257218       -1.1349322256
 C         -1.1043271573       -4.5191941259       -0.9893997095
 C         -2.5420803096       -4.1339153409       -1.1616075550
 H         -3.0277995179       -4.3512701202       -2.1011085660
 H         -3.1964811071       -4.2076041796       -0.3053132454
 H         -0.5997993215       -5.0048548195       -1.8103781168
 H         -0.7831088113       -4.8536466887       -0.0146513048
 H         -1.2520198087       -2.5859352386       -2.0720606001
