  62
        -98.94081702
 C          0.4614947104        1.8109698204        0.6840036300
 C          1.2910099549        1.8932684531       -0.4585020748
 C          2.5770209743        1.1772203979       -0.3837531697
 C          2.8690354757        0.4575078469        0.7131033665
 C          4.1176805591       -0.3311545226        1.0212173928
 C          4.7565414969       -1.1344193650       -0.1184578835
 C          3.7619143123       -1.7496257784       -1.1133745956
 H          3.9805042726       -2.8131102340       -1.2204167483
 H          2.7450812620       -1.6594417753       -0.7286988669
 C          3.8319338237       -1.1143653620       -2.5034634221
 H          4.8798150279       -0.9674873215       -2.7743426801
 H          3.4000016786       -1.8069872729       -3.2294587487
 C          3.0881338325        0.2122452009       -2.6456537927
 H          2.0093024190        0.0426566670       -2.5873463886
 H          3.2951693212        0.6120817777       -3.6413099744
 C          3.4492611304        1.2817865650       -1.6021521408
 H          4.5051170323        1.2417220264       -1.3458048938
 H          3.2352876496        2.2611616757       -2.0389503278
 H          5.4597923570       -0.5034889650       -0.6599111167
 H          5.3442274117       -1.9269561901        0.3478433606
 H          4.8605424847        0.3608418798        1.4293951872
 H          3.8322235067       -1.0066861302        1.8307429264
 O          2.0206016239        0.3789712086        1.7787032943
 C          0.8113111924        1.0498500993        1.7970941635
 O          0.1472188389        0.8883792868        2.8419270036
 H         -1.3486547774       -0.0802173858        0.3421590204
 C         -1.8713411958        0.5000642005       -0.4043679589
 C         -1.7563393776        1.8851076043       -0.3875037587
 C         -2.4349247827        2.6204350228       -1.3493112209
 C         -3.1990332759        1.9762159724       -2.3076282016
 C         -3.3202336483        0.5991670364       -2.3128919324
 C         -2.6520593534       -0.1465500485       -1.3470818428
 N         -2.7394017872       -1.5460789517       -1.3231247296
 S         -2.7910672317       -2.3624535651        0.1386063415
 O         -3.4353680483       -3.6193231783       -0.1822911308
 O         -3.4249793395       -1.5707841715        1.1663633936
 C         -1.0903770195       -2.6938399101        0.5425659913
 C         -0.3513933690       -3.4493483420       -0.3473994539
 C          0.9610246488       -3.7590461418       -0.0335228783
 C          1.5112059783       -3.3111825208        1.1590102086
 C          0.7569045161       -2.5550820599        2.0414671087
 C         -0.5586180115       -2.2439376742        1.7336648449
 H         -1.1662437980       -1.6460480413        2.3959841148
 H          1.1804938717       -2.1899650359        2.9637437980
 H          2.5343390476       -3.5519133661        1.4013311137
 H          1.5529649954       -4.3457083601       -0.7173264702
 H         -0.8178764345       -3.7847644143       -1.2587042728
 H         -3.3746489939       -1.9458069992       -1.9983844278
 H         -3.9229028867        0.1010945857       -3.0571150486
 H         -3.7146140702        2.5570331718       -3.0574438789
 H         -2.3602749366        3.6952550461       -1.3552987798
 C         -0.8926569644        2.4969740471        0.6899534669
 H         -1.3523417036        2.2561019241        1.6604411429
 C         -0.7427583766        3.9989135129        0.5804688908
 C         -1.8023736279        4.9005165948        1.1366460806
 C         -0.4747877330        4.7915388664        1.8230102349
 H          0.2071773642        5.6265325265        1.7654744283
 H         -0.4229110585        4.2493218597        2.7563075570
 H         -2.0320418264        5.8146108974        0.6102422530
 H         -2.6559490892        4.4366752630        1.6081271803
 H         -0.2332399525        4.3030820725       -0.3261057161
 O          0.9850297578        2.5435102574       -1.4913397447
