  62
        -98.94589566
 C         -1.5766451439       -1.5197353578       -0.2485491368
 C         -1.4877744794       -0.1385047816       -0.5476119344
 C         -2.7698428459        0.5646681896       -0.6993877700
 C         -3.9188727936       -0.1197550345       -0.5537575623
 C         -5.2897386776        0.4879743880       -0.6167916773
 C         -5.7612802448        0.9378972119        0.7734102382
 C         -4.7336509184        1.7751721170        1.5353956716
 H         -5.1875307302        2.0565147416        2.4882302294
 H         -3.8656779315        1.1527316633        1.7648305818
 C         -4.2691768026        3.0385160951        0.7973011924
 H         -4.9780269528        3.2858455661        0.0061883984
 H         -4.2657729315        3.8731274946        1.5015557751
 C         -2.8610864551        2.9463557593        0.2061216471
 H         -2.1612111095        2.6069078638        0.9737238007
 H         -2.5550559984        3.9508725353       -0.0971059774
 C         -2.7121243214        2.0323125703       -1.0160964959
 H         -3.4597179929        2.2952596732       -1.7671033608
 H         -1.7177105977        2.2030517507       -1.4381601047
 H         -6.6843239736        1.5088779888        0.6567386340
 H         -5.9856844657        0.0485178405        1.3670700741
 H         -5.2743346263        1.3360754344       -1.2985315651
 H         -5.9829071117       -0.2625498145       -1.0003901580
 O         -3.9620206354       -1.4490451686       -0.2764710024
 C         -2.7960805269       -2.1793763996       -0.1065588602
 O         -2.9759556539       -3.3838051944        0.1670649132
 H          2.3112631785       -1.3880501345       -0.1558996548
 C          1.8318963706       -1.2371200689        0.7958087109
 C          0.5343168931       -1.6696664296        1.0129500796
 C         -0.0330336888       -1.4753908587        2.2706043698
 C          0.6764991233       -0.8513907150        3.2774724928
 C          1.9632284185       -0.3948377045        3.0485054965
 C          2.5405994476       -0.5911575869        1.8003980139
 N          3.8465319751       -0.1538473684        1.5437144021
 S          4.3013128714        0.3684195806        0.0253569582
 O          4.4807079315       -0.7597412012       -0.8548136978
 O          5.4904125103        1.1585094075        0.2728291976
 C          3.0068981237        1.4329497814       -0.5834620936
 C          2.5564524360        2.4582916436        0.2226653423
 C          1.5919232729        3.3210275024       -0.2688868612
 C          1.1034888538        3.1509305525       -1.5540863811
 C          1.5657014509        2.1170794930       -2.3507209133
 C          2.5249728637        1.2468037637       -1.8614357965
 H          2.9039529178        0.4225479824       -2.4453094696
 H          1.1743500426        1.9782664181       -3.3462729974
 H          0.3521371500        3.8252629657       -1.9351724925
 H          1.2196574090        4.1202490973        0.3521639778
 H          2.9591868399        2.5728986655        1.2162718261
 H          4.2686643262        0.3979231773        2.2753434688
 H          2.5162526803        0.1044870537        3.8293961721
 H          0.2224073240       -0.7082403640        4.2465546092
 H         -1.0448486877       -1.8179725412        2.4429487167
 C         -0.3003844023       -2.3210851533       -0.0620590929
 H         -0.6068182015       -3.3169678510        0.2889408760
 C          0.4227197807       -2.4675500914       -1.3840269201
 C          1.3661817653       -3.6105775328       -1.6026510317
 C          0.0441960438       -3.5833983994       -2.3084467585
 H          0.0290107967       -3.3909640173       -3.3707542543
 H         -0.7280957166       -4.2625198369       -1.9770524567
 H          1.4941554314       -4.3135321434       -0.7932181199
 H          2.2650113170       -3.4355825289       -2.1750879300
 H          0.6691440381       -1.5112667911       -1.8319140334
 O         -0.3992399622        0.4754474007       -0.6789422993
