  62
        -98.94386265
 C          1.6685239567        1.4313924554        0.5646244318
 C          2.6580859553        1.0622448447       -0.3791857442
 C          3.4824239432       -0.1026439381       -0.0164791875
 C          3.2039590224       -0.7949842347        1.1020342410
 C          3.9235778131       -2.0339175693        1.5490480239
 C          3.2678719833       -3.3043325958        0.9897000173
 C          2.9956351578       -3.2507671194       -0.5134784652
 H          2.5649528589       -4.2128082584       -0.7997472337
 H          2.2455990296       -2.4824379539       -0.7143561344
 C          4.2359224426       -2.9780536376       -1.3753282629
 H          5.1408321472       -3.1802964987       -0.8009911548
 H          4.2313894912       -3.6649850473       -2.2241784061
 C          4.3050815224       -1.5618530338       -1.9483495690
 H          5.0901773735       -1.5400294804       -2.7089151184
 H          3.3621271321       -1.3193031623       -2.4444240785
 C          4.6177505035       -0.4513796729       -0.9379624279
 H          5.5080373377       -0.7170370242       -0.3639379919
 H          4.8339386528        0.4588254606       -1.5048114212
 H          2.3183975374       -3.4616436571        1.5064828816
 H          3.9179159127       -4.1522087914        1.2136279398
 H          4.9613156681       -1.9777329544        1.2253736239
 H          3.8964303909       -2.0717562502        2.6395619773
 O          2.1902516516       -0.4599323066        1.9414722507
 C          1.4147752552        0.6604985659        1.7032933459
 O          0.5360810757        0.8656563832        2.5652556157
 H         -1.6927874241        2.0950075282        1.3676657949
 C         -1.6440362566        1.8772310492        0.3093372509
 C         -0.4672274638        2.1270011451       -0.3810380966
 C         -0.4060178507        1.8104499190       -1.7341459538
 C         -1.5015364764        1.2573684825       -2.3724525971
 C         -2.6702852912        0.9953762323       -1.6773924317
 C         -2.7362995718        1.3037532995       -0.3255790213
 N         -3.9032514788        0.9995506127        0.4019022962
 S         -4.4679679892       -0.5699720327        0.2530729689
 O         -5.2838072924       -0.6736690041       -0.9312783119
 O         -5.1387756753       -0.8586537397        1.5014207864
 C         -3.0186674466       -1.5978517580        0.0673001526
 C         -1.9941998206       -1.4841692304        0.9863753197
 C         -0.8706410860       -2.2809427575        0.8393865754
 C         -0.7940270310       -3.1821168172       -0.2110365423
 C         -1.8317982077       -3.2864676108       -1.1240333284
 C         -2.9531771360       -2.4842691150       -0.9886178515
 H         -3.7783790449       -2.5247554685       -1.6809138288
 H         -1.7673177511       -3.9867788773       -1.9410739349
 H          0.0802588862       -3.8045400275       -0.3168030547
 H         -0.0596700010       -2.1798727671        1.5443259389
 H         -2.0632152555       -0.7812327032        1.8015241451
 H         -3.8447025073        1.2588875030        1.3765411065
 H         -3.5259422266        0.5469902421       -2.1562230558
 H         -1.4426965064        1.0144391752       -3.4224210196
 H          0.5161613898        1.9725636965       -2.2705736526
 C          0.7376042979        2.6226340520        0.3801272921
 H          0.4019885602        2.8987832512        1.3891410120
 C          1.3795663090        3.8375708912       -0.2525848361
 C          0.7108473625        5.1681620201       -0.0872004409
 C          1.9948424250        4.8798993890        0.6298424742
 H          2.8964252610        5.3700967829        0.2947339806
 H          1.9579105510        4.7201340400        1.6979517599
 H          0.7279676304        5.8592886699       -0.9156877294
 H         -0.1979911041        5.2036469516        0.4949357890
 H          1.8734930765        3.6354067919       -1.1924057744
 O          2.8673977614        1.6560618881       -1.4682414600
