  62
        -98.94002128
 C         -2.2382485003       -1.0820019324       -0.4600632279
 C         -3.5074133446       -0.9080488726        0.1497320287
 C         -4.2680380959        0.2753227036       -0.2622251723
 C         -3.7506301319        1.1117282263       -1.1798829836
 C         -4.4081142126        2.3550233191       -1.7151073231
 C         -4.2076719878        3.5941183743       -0.8317364522
 C         -5.0043533903        3.5979801109        0.4736537002
 H         -4.9416707085        4.6079990916        0.8833856223
 H         -6.0542128284        3.3984945620        0.2570547716
 C         -4.4964980065        2.6052900173        1.5288293569
 H         -3.4814364090        2.2898805609        1.2744915220
 H         -4.4415236151        3.1027033575        2.4997974245
 C         -5.3714789758        1.3640300168        1.7046368575
 H         -4.8985991138        0.7149744065        2.4458343722
 H         -6.3509317951        1.6576375329        2.0883829942
 C         -5.5740431174        0.5474943260        0.4215853421
 H         -6.2549022579        1.0667398522       -0.2522096474
 H         -6.0136433488       -0.4151857972        0.6931075506
 H         -3.1422708936        3.6949175144       -0.6103985486
 H         -4.5086064857        4.4647841119       -1.4190566312
 H         -5.4742106906        2.1745198346       -1.8554902997
 H         -3.9557766867        2.5499597233       -2.6898371352
 O         -2.5385502427        0.9015947789       -1.7581158002
 C         -1.7404439527       -0.1791571318       -1.4004222701
 O         -0.6515019168       -0.2154670473       -2.0047111444
 O         -3.9848081152       -1.7100852351        0.9960763194
 C         -1.4075990619       -2.2737410662       -0.0103415467
 C         -0.3574047480       -1.7829692358        0.9573588076
 C         -0.6841467489       -1.6790722090        2.3073406745
 C          0.2345646413       -1.2003553844        3.2215252036
 C          1.4954545324       -0.8117065118        2.8058509930
 C          1.8313171236       -0.9077921343        1.4601624248
 C          0.9085016500       -1.3939647302        0.5435028915
 H          1.1795474092       -1.4318689713       -0.4987513287
 N          3.1207197300       -0.5476898733        1.0265290994
 S          3.2727673226        0.3166966182       -0.4199805203
 O          2.3562274410        1.4349720800       -0.4235773265
 O          3.2035383802       -0.6037745042       -1.5248768125
 C          4.9499541786        0.9029177092       -0.2444610833
 C          5.1776124568        2.1807319162        0.2302126323
 C          6.4842773453        2.6140348837        0.3925017094
 C          7.5361248077        1.7652264412        0.0826217882
 C          7.2924751314        0.4852619462       -0.3930227604
 C          5.9883644502        0.0468480485       -0.5590714563
 H          5.7493828257       -0.9344224929       -0.9343004084
 H          8.1125926356       -0.1711176387       -0.6353353011
 H          8.5519399282        2.1043803806        0.2102333161
 H          6.6759935450        3.6095821896        0.7590488257
 H          4.3280959562        2.8077812246        0.4491744818
 H          3.6518976549       -0.0926963436        1.7580920627
 H          2.2159220711       -0.4360352190        3.5168599000
 H         -0.0329036492       -1.1251051067        4.2647180659
 H         -1.6764043397       -1.9663204610        2.6255471634
 H         -2.1059617822       -2.9088606785        0.5528896787
 C         -0.8421397802       -3.0842028234       -1.1559607109
 C         -0.3593034027       -4.4770739900       -0.8864461941
 C         -1.6168648536       -4.2584913775       -1.6714132695
 H         -1.6054173887       -4.4551580658       -2.7329685861
 H         -2.5606516828       -4.4821378735       -1.1957240549
 H          0.5199446032       -4.8249837747       -1.4065569081
 H         -0.4505856612       -4.8483983466        0.1231876224
 H         -0.2993418605       -2.4931411164       -1.8828394177
