  62
        -98.93951850
 C          1.1803518472        1.4917031860        0.6526864980
 C          2.2158036884        1.3165418555       -0.2968251189
 C          3.2071166587        0.2659493318        0.0028434171
 C          3.0810863833       -0.4674033754        1.1208075172
 C          3.9864811319       -1.5559669906        1.6419120144
 C          4.5436610033       -2.5653081827        0.6286993797
 C          3.6052655518       -2.8972302769       -0.5406639201
 H          3.5143002992       -3.9817558901       -0.6229250717
 H          2.6105212863       -2.4938883368       -0.3479425429
 C          4.1092477030       -2.3639178032       -1.8834878866
 H          3.6317506735       -2.9277699599       -2.6881054683
 H          5.1846072126       -2.5417745405       -1.9531122018
 C          3.8283103190       -0.8840549272       -2.1392999686
 H          4.3276022741       -0.6015421791       -3.0691410815
 H          2.7565082529       -0.7301339640       -2.2912258328
 C          4.2838787789        0.0740990863       -1.0265563322
 H          5.2154306660       -0.2593258108       -0.5757786210
 H          4.4479068368        1.0569760857       -1.4763757614
 H          4.7700060341       -3.4763620013        1.1853868292
 H          5.4897199238       -2.1987185003        0.2330023389
 H          4.8201084757       -1.0793979473        2.1662890953
 H          3.3965440470       -2.0815721182        2.3970745745
 O          2.0573208043       -0.2745675497        2.0020272464
 C          1.0958018978        0.6976499850        1.7971448796
 O          0.2305609161        0.7553259988        2.6955462788
 H         -2.1395303718        1.0919427278        0.8369499378
 C         -1.9716446769        1.2976815680       -0.2097233092
 C         -0.8730809835        2.0563677707       -0.5944160283
 C         -0.6817436525        2.3203235397       -1.9459079709
 C         -1.5727929092        1.8313969186       -2.8843165940
 C         -2.6631217345        1.0724032244       -2.4990163308
 C         -2.8646683331        0.8036623234       -1.1494920951
 N         -3.9796655571        0.0611416659       -0.7338703652
 S         -3.8971429187       -0.9998756365        0.5522511031
 O         -5.0765094423       -1.8246185178        0.3975336824
 O         -3.7924333220       -0.2755337536        1.7923614284
 C         -2.4447402604       -1.9915907183        0.2601222298
 C         -1.3083118196       -1.8168132534        1.0214624966
 C         -0.1997814458       -2.6063336622        0.7558120681
 C         -0.2425320486       -3.5450112251       -0.2624394714
 C         -1.3930841783       -3.7071928518       -1.0198663445
 C         -2.5049952250       -2.9252775869       -0.7572520942
 H         -3.4246415012       -3.0366715073       -1.3083718904
 H         -1.4246759722       -4.4409506540       -1.8089962262
 H          0.6239285476       -4.1556111198       -0.4623833827
 H          0.6897612567       -2.4748865713        1.3522481126
 H         -1.2942626332       -1.0764850375        1.8066905776
 H         -4.5453082853       -0.3081117604       -1.4838213861
 H         -3.3585162213        0.6948838743       -3.2330127506
 H         -1.4137420754        2.0412943467       -3.9311158581
 H          0.1791447644        2.8872832600       -2.2590976432
 C          0.0851788533        2.5319878956        0.4716016193
 H         -0.4636711551        2.5534136120        1.4232630643
 C          0.6358930233        3.9178068026        0.2037951399
 C         -0.2702543027        5.1004120961        0.3600175260
 C          0.8283907332        4.8613328666        1.3508270356
 H          1.6858165515        5.5175303047        1.3402315118
 H          0.5593312505        4.5122231503        2.3376000032
 H         -0.1696436527        5.9231999191       -0.3309158601
 H         -1.2858659579        4.9113774337        0.6748210825
 H          1.3742910664        3.9466357558       -0.5863259394
 O          2.3372289876        2.0047403708       -1.3420174411
