  62
        -98.94116361
 C         -2.7662123414       -0.6230548670       -0.3076661282
 C         -2.1181591930        0.3348943297       -1.1248919485
 C         -2.4438960634        1.7397635275       -0.8476274393
 C         -3.3357047074        2.0522370496        0.1085831112
 C         -3.7823970830        3.4373532325        0.4896908102
 C         -2.8498588026        4.1426833135        1.4841119006
 C         -1.5101046483        4.6015633399        0.9069290378
 H         -1.6855750158        5.1869360564        0.0037848412
 H         -1.0541414528        5.2658250959        1.6436260868
 C         -0.5303713879        3.4600667099        0.6012127867
 H         -0.8415620753        2.5533057694        1.1262510176
 H          0.4611953856        3.7096950052        0.9861235386
 C         -0.3712565190        3.1370593755       -0.8842827482
 H          0.3003181096        2.2778031081       -0.9651324726
 H          0.0924486055        3.9830149080       -1.3970264220
 C         -1.6833683967        2.7898308073       -1.5999173904
 H         -2.2906629260        3.6853813515       -1.7269508037
 H         -1.4414431150        2.3851263476       -2.5855969603
 H         -3.3795493744        5.0207643513        1.8608108407
 H         -2.6698537568        3.4742724797        2.3295665286
 H         -3.8885528547        4.0479865699       -0.4073109394
 H         -4.7638642649        3.3293678155        0.9563322101
 O         -3.9690690629        1.1030370863        0.8470648456
 C         -3.6753390968       -0.2391114024        0.6842625726
 O         -4.2944163380       -0.9918795978        1.4632504036
 O         -1.3051857044        0.0629222824       -2.0495103963
 C         -2.4941396778       -2.1190609095       -0.3953311796
 C         -1.1922503174       -2.4275635865        0.3057357759
 C         -1.1702759120       -3.1335179721        1.5027342260
 C          0.0216480272       -3.3457548855        2.1745100018
 C          1.2130755196       -2.8504824349        1.6744275488
 C          1.1985017165       -2.1419408259        0.4806850829
 C          0.0077993380       -1.9503887443       -0.2017882301
 H          0.0038136380       -1.3815858558       -1.1197428156
 N          2.4028432709       -1.5926333361       -0.0268207324
 S          3.0191564706       -0.3642788496        0.9654524712
 O          3.5933346770       -0.9819559830        2.1346036478
 O          2.0048162485        0.6370765623        1.2127037534
 C          4.3105734174        0.2997153016       -0.0669324670
 C          4.0482273740        1.4143212873       -0.8398902022
 C          5.0465572077        1.9071054718       -1.6655359352
 C          6.2812948558        1.2771108654       -1.7060408472
 C          6.5287813361        0.1581019065       -0.9246544343
 C          5.5354071047       -0.3389256064       -0.0962294959
 H          5.6830027353       -1.1996268906        0.5345668392
 H          7.4907917209       -0.3271649416       -0.9584044186
 H          7.0560265492        1.6628728553       -2.3496908843
 H          4.8563479048        2.7777854075       -2.2722950933
 H          3.0756185161        1.8763160721       -0.7709946330
 H          2.2398343074       -1.1941824161       -0.9445462534
 H          2.1427899698       -2.9782162665        2.2046081566
 H          0.0215784491       -3.8933105593        3.1051091177
 H         -2.1000915407       -3.4945395153        1.9187918613
 H         -3.3026794283       -2.6021507592        0.1689960380
 C         -2.5136042679       -2.6521817173       -1.8140942325
 C         -2.7206169033       -4.1197308636       -2.0320423405
 C         -3.8036152601       -3.1481148258       -2.3912864876
 H         -4.0058356708       -2.9602924223       -3.4350080973
 H         -4.6812932795       -3.1058127166       -1.7625505930
 H         -2.1778983522       -4.6032636174       -2.8295722176
 H         -2.8647456677       -4.7385996730       -1.1592699401
 H         -1.8404602143       -2.1320572882       -2.4819723285
