  62
        -98.94489745
 C         -2.4374918304       -1.1294479620       -0.0551898526
 C         -3.1179556800       -0.3551392607        0.9224837120
 C         -3.6827924725        0.9188769238        0.4697144651
 C         -3.5497980935        1.2838664812       -0.8178755825
 C         -4.0658393630        2.5533476893       -1.4383351178
 C         -3.1322228122        3.7568333452       -1.2473078656
 C         -3.0993936041        4.3360488587        0.1677401087
 H         -2.5897419820        5.2995792733        0.1059388527
 H         -4.1188037213        4.5266132833        0.5049318879
 C         -2.3697696029        3.4593085591        1.1953669867
 H         -1.7404379090        2.7324335707        0.6747983388
 H         -1.7015428243        4.0822114989        1.7945010194
 C         -3.2901608686        2.7192726179        2.1665575936
 H         -3.8194384038        3.4423882814        2.7909952790
 H         -2.6695311970        2.0992195131        2.8182090850
 C         -4.3239534924        1.8091393138        1.4909467888
 H         -4.7694125510        1.1693224397        2.2565074933
 H         -5.1103989669        2.4078192332        1.0322684616
 H         -2.1211542022        3.4660755785       -1.5446955974
 H         -3.4669405647        4.5408855334       -1.9306651910
 H         -4.1640444405        2.3598217565       -2.5086965770
 H         -5.0512303675        2.7869531998       -1.0342719907
 O         -2.9217457197        0.5017786160       -1.7330588347
 C         -2.3239605753       -0.6986309463       -1.3768268293
 O         -1.7540693348       -1.2643282836       -2.3336961617
 H          0.1620500414       -1.8615422934       -1.3644275025
 C          0.5380146514       -1.8544590378       -0.3518643301
 C         -0.3229589834       -2.1397828074        0.6989106956
 C          0.1751458236       -2.0906793068        1.9957573349
 C          1.4984174029       -1.7602622279        2.2317418171
 C          2.3465749370       -1.4558221387        1.1815144072
 C          1.8546643541       -1.4954438201       -0.1160715211
 N          2.7005956802       -1.1211427637       -1.1904205480
 S          2.9458970098        0.5473408409       -1.2674051053
 O          1.7926034519        1.2750178676       -0.7836392363
 O          3.3546611764        0.8218760363       -2.6278400586
 C          4.3288339743        0.8016106849       -0.1761064361
 C          5.5484956430        0.2617458082       -0.5357995043
 C          6.6326266041        0.4377872821        0.3090224442
 C          6.4791626907        1.1466026451        1.4915500772
 C          5.2486258697        1.6845931944        1.8364833071
 C          4.1596904544        1.5116477183        0.9960428406
 H          3.1821010481        1.9057555335        1.2237815135
 H          5.1310100230        2.2353215115        2.7558520140
 H          7.3238779753        1.2812409196        2.1485190045
 H          7.5913306776        0.0220347475        0.0441226914
 H          5.6214565274       -0.2767876203       -1.4658248033
 H          2.3312094481       -1.4221156217       -2.0832569677
 H          3.3749169334       -1.1847405105        1.3570966498
 H          1.8704417247       -1.7282419920        3.2443004078
 H         -0.4916689942       -2.2905535470        2.8219047161
 C         -1.7841835858       -2.4133247522        0.4345583917
 H         -2.2656933495       -2.6313722617        1.3972066117
 C         -1.9862104048       -3.6008083964       -0.4833663072
 C         -1.8113136594       -4.9815515932        0.0721673854
 C         -3.1793917682       -4.4845336392       -0.2840644297
 H         -3.6682863986       -4.8912337927       -1.1565089059
 H         -3.8573817818       -4.2347946012        0.5189221299
 H         -1.3581521756       -5.7342832192       -0.5542717396
 H         -1.5619220812       -5.0703530787        1.1185971195
 H         -1.6690187227       -3.4224063187       -1.5023502526
 O         -3.2492114598       -0.7192819626        2.1208748707
