  62
        -98.94342467
 C         -1.9726471664       -1.1642656064        0.1789619377
 C         -2.5487584823       -0.3109501625        1.1554827832
 C         -3.9458070893        0.0754595442        0.9377187173
 C         -4.6010660553       -0.3814367519       -0.1450034835
 C         -6.0419573775       -0.1160842367       -0.4875913671
 C         -6.2797960938        1.2113482196       -1.2198485490
 C         -6.1350227236        2.4644655967       -0.3556956954
 H         -6.5370353099        3.3000363663       -0.9321700609
 H         -6.7500135630        2.3609087387        0.5388443838
 C         -4.6897789541        2.7917609912        0.0452428656
 H         -3.9990701543        2.2456691784       -0.6017674898
 H         -4.4998819718        3.8558847729       -0.1128368782
 C         -4.3500816503        2.4834347909        1.5036206999
 H         -4.9419416860        3.1246775241        2.1606997170
 H         -3.2948340393        2.7185874551        1.6652811825
 C         -4.5790447040        1.0222034057        1.9121018593
 H         -4.1102448524        0.8610981813        2.8859843975
 H         -5.6463492601        0.8199652975        2.0001655952
 H         -5.5925974047        1.2715864818       -2.0669572952
 H         -7.2967631834        1.1859731204       -1.6180870603
 H         -6.3597858352       -0.9308922403       -1.1417071002
 H         -6.6445951542       -0.1444936801        0.4207612703
 O         -4.0106161379       -1.1827336267       -1.0678743273
 C         -2.6826262868       -1.5728071119       -0.9507996265
 O         -2.2856145282       -2.2745280487       -1.8997624349
 O         -1.9237098964        0.0979373803        2.1711471884
 C         -0.5266431530       -1.5795588756        0.3939171853
 C          0.3808324974       -0.7190362716       -0.4509614498
 C          0.6264965187       -0.9914204394       -1.7919408592
 C          1.4686492453       -0.1769022702       -2.5280431974
 C          2.0901272778        0.9129936501       -1.9438579801
 C          1.8473600467        1.1943684613       -0.6063075937
 C          0.9966669653        0.3817316140        0.1290941597
 H          0.7984010155        0.6103144964        1.1680875862
 N          2.5183550620        2.2765523836        0.0035584068
 S          4.1931144089        2.1416288455       -0.0041996671
 O          4.6543134169        2.9304095954        1.1160242833
 O          4.6940959729        2.5254727576       -1.2993140115
 C          4.4837110305        0.4037951908        0.2757072101
 C          4.8051126951       -0.4169185259       -0.7861538087
 C          4.9214404195       -1.7801185441       -0.5669578306
 C          4.7120832058       -2.2964958347        0.7020730299
 C          4.3971657563       -1.4577199668        1.7604727793
 C          4.2756222851       -0.0944973959        1.5466042314
 H          4.0340285823        0.5885410841        2.3455203194
 H          4.2384650133       -1.8621331167        2.7475830053
 H          4.7944598301       -3.3589662338        0.8689175903
 H          5.1670031964       -2.4350161861       -1.3871107643
 H          4.9594200950        0.0242595088       -1.7568587203
 H          2.1941859827        2.4622627573        0.9424678549
 H          2.7629364483        1.5472162605       -2.4984779782
 H          1.6475078554       -0.3960836011       -3.5696788802
 H          0.1340462309       -1.8301007995       -2.2571486611
 H         -0.3194394058       -1.3409235658        1.4459542199
 C         -0.2746368328       -3.0580661800        0.1789693080
 C          1.0382301192       -3.6298977934        0.6219730549
 C         -0.2174095003       -3.9716341109        1.3647233354
 H         -0.6220961938       -4.9677137773        1.2656676859
 H         -0.3690883029       -3.5357348762        2.3414603018
 H          1.4979972696       -4.3918872643        0.0122869907
 H          1.7409182643       -2.9554820983        1.0883801812
 H         -0.7169166417       -3.4488018753       -0.7275089942
