  62
        -98.93709706
 C          2.2707600747        1.0773742127       -0.5068319524
 C          3.0321070226        0.0667331987       -1.1456401171
 C          4.4039329411       -0.1140665772       -0.6403399415
 C          4.8515269179        0.6567989661        0.3659951417
 C          6.1996158421        0.5302532568        1.0129325624
 C          6.1522633631       -0.4271980382        2.2121079096
 C          5.4702230825       -1.7618166498        1.9109268504
 H          5.5230671530       -2.3655685574        2.8195104202
 H          4.4122159338       -1.5827992918        1.7058365716
 C          6.0886253578       -2.5414247895        0.7420252842
 H          6.1884433929       -3.5889073359        1.0341527212
 H          7.0916587668       -2.1660969645        0.5359370906
 C          5.2630431023       -2.5147924001       -0.5455110825
 H          5.6732438784       -3.2640378472       -1.2277489325
 H          4.2321847030       -2.8024135097       -0.3249850855
 C          5.2402605823       -1.1771710005       -1.2959146665
 H          6.2616464062       -0.8234526589       -1.4494763381
 H          4.7858702414       -1.3540465094       -2.2751329060
 H          7.1743522129       -0.6065350669        2.5506880184
 H          5.6062993405        0.0607583297        3.0229620248
 H          6.5085882682        1.5178658189        1.3596538261
 H          6.9179722416        0.1732524284        0.2775124822
 O          4.0938707598        1.6211563046        0.9500671995
 C          2.7938634213        1.8462951951        0.5363471125
 O          2.2085819187        2.7553108053        1.1616408692
 O          2.6099465461       -0.6567443468       -2.0818493475
 C          0.8385697909        1.4084655905       -0.8913221439
 C         -0.1441841789        0.5363402222       -0.1560908920
 C         -0.0293087901       -0.8506606128       -0.1513217926
 C         -0.9701319055       -1.6332993914        0.4936151419
 C         -2.0503053360       -1.0502812642        1.1346030290
 C         -2.1661253872        0.3319396782        1.1437146001
 C         -1.2140539452        1.1157729040        0.5100991183
 H         -1.3145791158        2.1931333994        0.5255093348
 N         -3.3156262879        0.9160596163        1.7475679499
 S         -4.5381916728        1.1344389705        0.6015357475
 O         -4.0318793222        1.8142301562       -0.5720993861
 O         -5.6212782210        1.7968429239        1.2927319815
 C         -4.9797949738       -0.5369654437        0.1952368806
 C         -4.4399200591       -1.1173554580       -0.9355377146
 C         -4.7463542733       -2.4387959325       -1.2189707588
 C         -5.5802522938       -3.1510680866       -0.3702572926
 C         -6.1161435692       -2.5518522687        0.7601724031
 C         -5.8123342143       -1.2314239841        1.0507696520
 H         -6.2055176912       -0.7232253722        1.9157417387
 H         -6.7652885975       -3.1096559249        1.4157802885
 H         -5.8140947658       -4.1803327674       -0.5925207595
 H         -4.3294784393       -2.9061647816       -2.0965454178
 H         -3.7953729004       -0.5268635019       -1.5673321004
 H         -3.1167163197        1.8153352210        2.1673050853
 H         -2.7935634829       -1.6500553270        1.6340266014
 H         -0.8674521718       -2.7074470775        0.4879490885
 H          0.8008265065       -1.3056181451       -0.6703488069
 H          0.6824968166        2.4427306797       -0.5439162146
 C          0.5963347441        1.4088995399       -2.3955072310
 C         -0.1879276887        0.3598608415       -3.1182924778
 C         -0.7698738487        1.7267241269       -2.9306361733
 H         -0.8497736524        2.3800761186       -3.7866494868
 H         -1.5774188768        1.8390238135       -2.2198908280
 H          0.1568833212        0.0694863988       -4.0988225192
 H         -0.6039223801       -0.4540048256       -2.5463699827
 H          1.4377769426        1.8332318763       -2.9344553592
