  62
        -98.93783097
 C         -1.3446922512       -1.4944180666       -0.5648935778
 C         -2.5651001206       -1.5021570400        0.1525380199
 C         -3.5852070292       -0.5037545410       -0.2184027306
 C         -3.3057572977        0.3615855663       -1.2105209439
 C         -4.1550737663        1.4873424355       -1.7391996722
 C         -4.1652219484        2.7064328336       -0.8047446973
 C         -4.3700070643        2.3791100881        0.6718193739
 H         -3.5657946151        1.7199324024        1.0050659185
 H         -4.2722466482        3.3121320411        1.2335662028
 C         -5.7212864294        1.7594275453        1.0219208715
 H         -6.5177134582        2.4331079710        0.6981864438
 H         -5.7694735093        1.6876471678        2.1114779390
 C         -5.9926176881        0.3678701780        0.4443845236
 H         -6.2913813812        0.4248070385       -0.5989371588
 H         -6.8448902151       -0.0489104110        0.9888492147
 C         -4.8440228765       -0.6223707284        0.6068179183
 H         -4.5209592537       -0.6304849875        1.6542372580
 H         -5.2242418033       -1.6333631355        0.4165291177
 H         -3.2015665616        3.2140292129       -0.9002736363
 H         -4.9447757558        3.3927154944       -1.1408424351
 H         -3.7179174776        1.7868739552       -2.6944720228
 H         -5.1656468174        1.1388201265       -1.9308689996
 O         -2.1191995330        0.3346415063       -1.8775896542
 C         -1.1059681182       -0.5611112052       -1.5742325398
 O         -0.0905533327       -0.4207815073       -2.2800475695
 O         -2.8024121788       -2.3252520186        1.0796289431
 C         -0.3060183341       -2.5164027916       -0.1410641137
 C          0.5459265866       -1.9879901153        0.9875404100
 C          0.9396829856       -2.8172573882        2.0319401201
 C          1.7238882398       -2.3254060915        3.0602590559
 C          2.1195026299       -1.0004560358        3.0731327275
 C          1.7136993672       -0.1558556209        2.0438948789
 C          0.9445845381       -0.6593543182        1.0045153991
 H          0.6275028283        0.0031299305        0.2162977713
 N          2.0494510713        1.1998131221        2.0729830646
 S          2.0823555789        2.2049173199        0.7439208611
 O          2.6345800637        3.4356932772        1.2711685962
 O          0.7737107203        2.3038415432        0.1492938880
 C          3.2697252264        1.4792413205       -0.3707508144
 C          4.6019625145        1.5901567586       -0.0155223778
 C          5.5677000843        1.0363477891       -0.8379135414
 C          5.1873622157        0.3849467057       -2.0023503424
 C          3.8489755407        0.2867643432       -2.3454655705
 C          2.8737549188        0.8336176623       -1.5232247712
 H          1.8266689621        0.7502555550       -1.7714729402
 H          3.5455791581       -0.2162584210       -3.2495418817
 H          5.9371469503       -0.0463606914       -2.6466812435
 H          6.6096416778        1.1147825164       -0.5724263877
 H          4.8552587089        2.1245274234        0.8856215942
 H          2.6908289608        1.4834804758        2.7969227327
 H          2.7198376418       -0.6133573947        3.8817337236
 H          2.0250638030       -2.9785026104        3.8650096116
 H          0.6090708389       -3.8452632596        2.0463476954
 H         -0.8881578779       -3.3611102149        0.2625608452
 C          0.5265383531       -3.0479167638       -1.2991550528
 C          1.9569196641       -2.6684941374       -1.5194966177
 C          1.6152986414       -4.0523711748       -1.0610699818
 H          1.7200950377       -4.8692483266       -1.7587966955
 H          1.8468031593       -4.3098572673       -0.0393286975
 H          2.2824715154       -2.5201868492       -2.5369601553
 H          2.4160077275       -1.9915238915       -0.8153976596
 H         -0.0746839223       -3.1870772185       -2.1918672512
