  62
        -98.94849061
 C         -1.2394687674       -1.5208942252        0.4921531669
 C         -2.1318878266       -1.1588330386       -0.5455858859
 C         -3.1635148504       -0.1752121923       -0.1877496646
 C         -3.2108972988        0.3081279783        1.0666827918
 C         -4.1918401491        1.3332364769        1.5558841402
 C         -3.6329835502        2.7563109495        1.4249263714
 C         -3.0468393889        3.0735172650        0.0486810333
 H         -2.7395613788        4.1221582431        0.0640420543
 H         -2.1350488297        2.4890730015       -0.1005309405
 C         -4.0097369033        2.8427706317       -1.1243556280
 H         -3.9253021299        3.6877399852       -1.8111917056
 H         -5.0380328885        2.8217073778       -0.7603706860
 C         -3.7328557219        1.5788768662       -1.9410808820
 H         -4.2984479015        1.6472844058       -2.8744841337
 H         -2.6714372888        1.5415976889       -2.2019336441
 C         -4.1124810446        0.2522133887       -1.2707871196
 H         -5.1355347155        0.3088648569       -0.8931713451
 H         -4.0685012678       -0.5309656406       -2.0334170451
 H         -4.4347287045        3.4622718339        1.6517049304
 H         -2.8413377336        2.8900430591        2.1660181315
 H         -4.4010515054        1.1322082121        2.6083234457
 H         -5.1159091441        1.2417947945        0.9882345427
 O         -2.3392857071       -0.0661642358        2.0375717461
 C         -1.3132107444       -0.9569708053        1.7644574706
 O         -0.5445364224       -1.1670116496        2.7261708420
 O         -2.0711750520       -1.6308047401       -1.7111737900
 C         -0.1023682879       -2.4838399433        0.2095371634
 C          0.8113399833       -1.9292061787       -0.8587429862
 C          1.5170776850       -2.7333076105       -1.7460111282
 C          2.3599796523       -2.1642521756       -2.6851027526
 C          2.5327208751       -0.7931409855       -2.7523463098
 C          1.8333647515        0.0188593795       -1.8671216730
 C          0.9867288326       -0.5555600053       -0.9336709492
 H          0.4292616953        0.0877189374       -0.2718055885
 N          1.9601110303        1.4152208058       -1.8983159926
 S          1.8553686657        2.2980854803       -0.4835011986
 O          0.4954993244        2.3396592175       -0.0089926848
 O          2.4450234938        3.5759837276       -0.8221533901
 C          2.9141468641        1.4381701294        0.6660698404
 C          4.2756081893        1.4943678713        0.4334366825
 C          5.1316381994        0.8011465002        1.2722011483
 C          4.6145368085        0.0586474248        2.3236861355
 C          3.2478031612        0.0161826518        2.5475650744
 C          2.3863564266        0.7125139671        1.7135697092
 H          1.3194359629        0.6888055202        1.8730702676
 H          2.8330036792       -0.5584129033        3.3606776948
 H          5.2787929596       -0.4875382139        2.9746022248
 H          6.1957593838        0.8380764975        1.1036944618
 H          4.6386255451        2.0917965397       -0.3870357578
 H          2.6701828390        1.7713599631       -2.5202583587
 H          3.1891597658       -0.3534351693       -3.4872529521
 H          2.8955932712       -2.7993820577       -3.3741019822
 H          1.3999598156       -3.8040360716       -1.7071378567
 H          0.4779268014       -2.5514796460        1.1426502639
 C         -0.6417249597       -3.8594989375       -0.1287512368
 C          0.1035343522       -5.0920673031        0.2846125090
 C         -1.1707007852       -4.7190682605        0.9787889996
 H         -2.0549758682       -5.3107260829        0.7957404649
 H         -1.1115055788       -4.3229892290        1.9824901580
 H          0.0925547248       -5.9462912043       -0.3755779867
 H          1.0282420611       -4.9617988131        0.8263251885
 H         -1.1758923681       -3.8735009378       -1.0716208724
