  62
        -98.94017289
 C          1.4413195029        1.6965497971       -0.0366538452
 C          1.6138498018        0.6160668487       -0.9357394426
 C          2.8993931945       -0.1041872684       -0.8543561224
 C          3.8026966956        0.2447377970        0.0761143266
 C          5.1782855891       -0.3243001140        0.3204232944
 C          5.3442626906       -1.8474894489        0.2407454583
 C          4.1258633673       -2.6605454527        0.7027478797
 H          4.4505603264       -3.4048484319        1.4326006277
 H          3.4028751942       -2.0121184297        1.2013701903
 C          3.4311147737       -3.3981618561       -0.4441481068
 H          4.1937141251       -3.8407321109       -1.0898774428
 H          2.8368916695       -4.2151430108       -0.0273090403
 C          2.4849258214       -2.5468302967       -1.2899950241
 H          2.1566043843       -3.1545895962       -2.1375232895
 H          1.5903759881       -2.3082710671       -0.7080993778
 C          3.0779016728       -1.2341214714       -1.8276363421
 H          4.1225272692       -1.3608651459       -2.1038376391
 H          2.5131228104       -0.9551094423       -2.7215123360
 H          6.2068301674       -2.1030514610        0.8586496653
 H          5.5937085330       -2.1344217144       -0.7799187534
 H          5.8701589815        0.1477868876       -0.3835311624
 H          5.4526114395        0.0213977626        1.3201855002
 O          3.5772860664        1.2617506161        0.9563129681
 C          2.4143332366        2.0075326592        0.9157364885
 O          2.3633754944        2.9200029538        1.7666468465
 H         -0.3558697605       -0.0316847593        0.6153022856
 C         -1.0307821195        0.6598666602        1.0927227077
 C         -0.8738792274        2.0239842205        0.9088914813
 C         -1.7466725753        2.8888566862        1.5617785703
 C         -2.7471947559        2.3960918238        2.3781506118
 C         -2.9055447017        1.0326552612        2.5520060560
 C         -2.0378807016        0.1591627985        1.9073964319
 N         -2.1583698871       -1.2268571208        2.0821926561
 S         -1.9196824719       -2.2609233720        0.7861829500
 O         -2.5384607131       -3.4999180797        1.2103897350
 O         -0.5192347692       -2.3380684737        0.4634184916
 C         -2.8775469945       -1.5393543809       -0.5328115172
 C         -2.2762302821       -0.8275733222       -1.5494799155
 C         -3.0828672270       -0.2319455587       -2.5086017388
 C         -4.4608061868       -0.3544565714       -2.4359200184
 C         -5.0481592865       -1.0794796801       -1.4094996635
 C         -4.2508947458       -1.6750443581       -0.4473613421
 H         -4.6653188118       -2.2581653263        0.3591956070
 H         -6.1203659263       -1.1788808338       -1.3564554672
 H         -5.0794492578        0.1151583328       -3.1844296799
 H         -2.6208187312        0.3281561319       -3.3062973021
 H         -1.2015366090       -0.7366859011       -1.5882435314
 H         -2.9512014939       -1.5131606738        2.6376342028
 H         -3.6839322552        0.6451044000        3.1912314313
 H         -3.4123370168        3.0784263707        2.8847287813
 H         -1.6262727721        3.9541082536        1.4383359714
 C          0.2049042526        2.5766503188        0.0040693840
 H          0.5366047355        3.5310576191        0.4382745935
 C         -0.3841646206        2.8551477027       -1.3670261732
 C         -1.0439651478        4.1704989127       -1.6457308450
 C          0.2816730457        3.8501855852       -2.2672359049
 H          0.3270584015        3.6369992593       -3.3243898219
 H          1.1585592250        4.3553410087       -1.8880103373
 H         -1.9191047023        4.1812791109       -2.2767255038
 H         -1.0608739923        4.9071895061       -0.8572488763
 H         -0.8044256722        1.9736643341       -1.8322609426
 O          0.7624252890        0.2591329771       -1.7907053042
