  62
        -98.94415508
 C         -2.4139680596       -1.1003174004        0.2396034502
 C         -2.4584688098        0.2339603793       -0.2317811608
 C         -3.5562390299        1.0565532895        0.2935211186
 C         -4.4150584298        0.5376538201        1.1897148990
 C         -5.5709902499        1.2569120004        1.8304627784
 C         -6.8483348499        1.2666437096        0.9794566684
 C         -6.8094175600        2.1862503887       -0.2416786223
 H         -7.8314536800        2.2625105483       -0.6180612423
 H         -6.5008970202        3.1855284590        0.0670535170
 C         -5.9015562600        1.6934923280       -1.3771551719
 H         -5.6818063898        0.6330268881       -1.2341814011
 H         -6.4274918300        1.7858390572       -2.3300703620
 C         -4.5838351901        2.4568512180       -1.5122842125
 H         -4.0062344000        2.0037807975       -2.3221205821
 H         -4.7871106802        3.4949394078       -1.7847252732
 C         -3.7143899601        2.4453477991       -0.2479316224
 H         -2.7194854701        2.8145531790       -0.5102759727
 H         -4.1417127502        3.1033581996        0.5085512971
 H         -7.0623622098        0.2444195293        0.6592051692
 H         -7.6673367200        1.5910024300        1.6254568782
 H         -5.7836190699        0.7322417711        2.7643778588
 H         -5.2806052701        2.2812061506        2.0656540577
 O         -4.3142029697       -0.7392736396        1.6453127899
 C         -3.3267929596       -1.5889434098        1.1756906806
 O         -3.3618259194       -2.7363154394        1.6640674014
 O         -1.6333622398        0.7181532187       -1.0508110611
 C         -1.3346796395       -2.0539292306       -0.2457000190
 C          0.0097104204       -1.5228509601        0.1882053606
 C          0.2992066504       -1.4829401291        1.5502786705
 C          1.4993695803       -0.9701967786        2.0015894502
 C          2.4373567203       -0.4829043591        1.1066270998
 C          2.1530072303       -0.5056371302       -0.2509778002
 C          0.9495959504       -1.0354627307       -0.7035032498
 H          0.7423158604       -1.0405593715       -1.7617378298
 N          3.0968511303       -0.0279227107       -1.1718615805
 S          3.9925741501        1.3440310196       -0.8252894516
 O          3.2633086600        2.2795048602       -0.0009975623
 O          4.4349102300        1.8323369587       -2.1135060219
 C          5.4005145802        0.7118078705        0.0656914189
 C          5.8020092001        1.3249825514        1.2362711585
 C          6.9096511901        0.8305812121        1.9075061089
 C          7.5937016703       -0.2624284982        1.3983237797
 C          7.1794095403       -0.8656032292        0.2201455401
 C          6.0741849303       -0.3750277798       -0.4565680702
 H          5.7225673004       -0.8156216406       -1.3743447799
 H          7.7132747605       -1.7161085494       -0.1722997592
 H          8.4542165103       -0.6465335477        1.9230435100
 H          7.2326675601        1.2988641428        2.8234600085
 H          5.2351137500        2.1678222716        1.5990175878
 H          2.7720548303       -0.0228637615       -2.1277127205
 H          3.3701880802       -0.0700543887        1.4539503895
 H          1.7097484003       -0.9467869977        3.0601814501
 H         -0.4388955395       -1.8535017886        2.2489616508
 H         -1.5106970194       -3.0023888002        0.2802453417
 C         -1.4577500195       -2.2923248917       -1.7356356089
 C         -0.8168104793       -3.4988098521       -2.3511058480
 C         -2.3081266493       -3.4246353522       -2.2238627280
 H         -2.8966757393       -3.2784355130       -3.1172917681
 H         -2.7914118292       -4.0409228817       -1.4797771776
 H         -0.3815277393       -3.4078391328       -3.3347729380
 H         -0.2848909892       -4.1693384416       -1.6934973274
 H         -1.4787396896       -1.3741678222       -2.3110285896
