  62
        -98.94048078
 C          2.3189371597        0.7441504601        0.1445520913
 C          3.1069530797        0.0906849402        1.1288021413
 C          4.0183946599       -0.9566137397        0.6523099213
 C          4.0467757600       -1.2516902196       -0.6596732387
 C          4.9655506102       -2.2534036095       -1.2955236087
 C          6.2728807301       -1.5933375193       -1.7559069186
 C          6.9339534899       -0.7213462493       -0.6883378785
 H          7.8615404299       -0.3330798991       -1.1145621085
 H          6.2914310198        0.1377445906       -0.4818513585
 C          7.2412984200       -1.4508510893        0.6269122115
 H          7.2256442101       -2.5291607893        0.4647392114
 H          8.2513464499       -1.1857622591        0.9463223515
 C          6.3019436799       -1.0985354094        1.7818742014
 H          6.2425119097       -0.0123926994        1.8877364514
 H          6.7348806299       -1.4937236994        2.7045916014
 C          4.8748582799       -1.6505267696        1.6737502713
 H          4.9094443601       -2.7247091096        1.4811302313
 H          4.3819814699       -1.4888438597        2.6367436713
 H          6.9647728102       -2.3780755092       -2.0670812886
 H          6.0570065001       -0.9666197293       -2.6244302186
 H          5.1785049502       -3.0466812395       -0.5815781787
 H          4.4605768103       -2.6824527796       -2.1626593187
 O          3.2616162900       -0.6258835897       -1.5710220487
 C          2.3833401098        0.3872158802       -1.2026410287
 O          1.7407178898        0.8561670001       -2.1617887687
 O          3.0533444896        0.3807402402        2.3535269913
 C          1.4053582995        1.8526139100        0.6376539113
 C          0.0092855796        1.3497064698        0.9032199812
 C         -0.6310608105        1.6211044097        2.1064058212
 C         -1.9218251905        1.1756295795        2.3329412611
 C         -2.5977873103        0.4510260494        1.3678902410
 C         -1.9670774302        0.1742996996        0.1617812511
 C         -0.6733258203        0.6226575997       -0.0624412589
 H         -0.1914309302        0.4156690898       -1.0070665889
 N         -2.6421559401       -0.5695527605       -0.8232538290
 S         -4.1648287601       -0.0336261807       -1.2919474891
 O         -4.3524437300       -0.5389212307       -2.6340311691
 O         -4.2966035403        1.3943853093       -1.1164165790
 C         -5.2740875801       -0.8889826909       -0.1923319791
 C         -5.2312495799       -2.2693357609       -0.1713288392
 C         -6.0913320998       -2.9527540910        0.6732460208
 C         -6.9768416300       -2.2484647311        1.4756313808
 C         -7.0106068502       -0.8628740711        1.4397843408
 C         -6.1521547602       -0.1730323010        0.5976496408
 H         -6.1394760503        0.9036862390        0.5391571909
 H         -7.7005570003       -0.3174588712        2.0633943008
 H         -7.6449679199       -2.7830950612        2.1321946607
 H         -6.0681131097       -4.0302332710        0.7033787208
 H         -4.5314903998       -2.7776694308       -0.8136170191
 H         -2.0724237700       -0.7591112704       -1.6358971990
 H         -3.6026836603        0.1010706493        1.5381638210
 H         -2.4068402305        1.3930036394        3.2721505511
 H         -0.1064366606        2.1772401497        2.8694266812
 H          1.8345401494        2.1524818300        1.6067939613
 C          1.4240668894        3.0812665800       -0.2633050287
 C          0.2607819094        3.5283461599       -1.0922797888
 C          0.6548914992        4.3098657799        0.1230029213
 H          1.1193188791        5.2754357700       -0.0075920687
 H          0.0102697392        4.2402998298        0.9862018712
 H          0.4723501894        3.9372801499       -2.0687885687
 H         -0.6527023405        2.9544640598       -1.0569978388
 H          2.4048322894        3.2427294201       -0.7001347487
