  62
        -98.94648782
 C          1.5655972667        1.0847198587        0.0312887860
 C          2.6283604900        0.8126098821        0.9301935497
 C          3.3398954436       -0.4526424232        0.7213563083
 C          2.9341336622       -1.2934858066       -0.2471467281
 C          3.5275999492       -2.6413042021       -0.5554468871
 C          4.7641207369       -2.5862817463       -1.4631877165
 C          6.0346248004       -2.0513464975       -0.8013867412
 H          6.2175368911       -2.5956829536        0.1255982123
 H          6.8641197302       -2.2711844882       -1.4765024950
 C          6.0147809914       -0.5423822031       -0.5197863304
 H          5.2256532368       -0.0716746576       -1.1107058917
 H          6.9605266873       -0.0996447504       -0.8404301505
 C          5.8181893917       -0.1741666640        0.9509489880
 H          5.7815396823        0.9154685090        1.0290914319
 H          6.6732513977       -0.5240482447        1.5336040836
 C          4.5363791296       -0.7387252915        1.5773381613
 H          4.6400661622       -1.8107968841        1.7428413883
 H          4.3806715118       -0.2484879146        2.5413726945
 H          4.5276269296       -1.9795183830       -2.3403968655
 H          4.9610514880       -3.6042403841       -1.8073913926
 H          2.7529797254       -3.2152320489       -1.0686007395
 H          3.7801963232       -3.1519218222        0.3741332896
 O          1.8896790143       -1.0108480632       -1.0687368612
 C          1.1976198249        0.1894934894       -0.9728767639
 O          0.2990670011        0.3190263348       -1.8260017028
 O          2.9621685723        1.5892667790        1.8632283493
 C          0.7793812017        2.3719847448        0.2242434014
 C         -0.6030266065        1.9788366458        0.6800374741
 C         -0.8161931993        1.6557870114        2.0176527603
 C         -2.0433487423        1.1839676295        2.4445781383
 C         -3.0763488012        0.9967076470        1.5419664523
 C         -2.8670844371        1.3040938597        0.2045542062
 C         -1.6479276828        1.8177110332       -0.2159298052
 H         -1.5029121857        2.0456821024       -1.2595792175
 N         -3.8880508081        1.0546889632       -0.7311764146
 S         -4.6296809237       -0.4434845048       -0.6346367687
 O         -5.0220679433       -0.7682989091       -1.9887295652
 O         -5.7080573464       -0.3780672069        0.3222057741
 C         -3.3912248860       -1.5902261124       -0.0464338958
 C         -3.6938177467       -2.4075981188        1.0244290756
 C         -2.7384543405       -3.3007422331        1.4813294029
 C         -1.4976748244       -3.3585765935        0.8656013586
 C         -1.2105435035       -2.5330551766       -0.2099171464
 C         -2.1634892447       -1.6415516853       -0.6757833175
 H         -1.9359930613       -0.9869582035       -1.5024328197
 H         -0.2442436528       -2.5608664201       -0.6890214464
 H         -0.7489491203       -4.0472386990        1.2245409689
 H         -2.9612411410       -3.9440406359        2.3173080850
 H         -4.6669008729       -2.3218772119        1.4803828568
 H         -3.6103805918        1.2495047823       -1.6827001200
 H         -4.0344090302        0.6099293262        1.8501635777
 H         -2.1954835198        0.9454304368        3.4860356502
 H          0.0012141516        1.7648471581        2.7164710216
 H          1.2797087322        2.8998653340        1.0466888687
 C          0.8005379359        3.2526004383       -1.0067621022
 C          0.3564479542        4.6795574649       -0.8936954567
 C          1.8058741244        4.3595149218       -1.0984868637
 H          2.2510732775        4.5722515915       -2.0589772192
 H          2.4815284141        4.4919098645       -0.2662517816
 H         -0.1952704415        5.1159676496       -1.7123171099
 H          0.0461550266        5.0274739621        0.0799434914
 H          0.5707654133        2.7214249345       -1.9224371772
