  62
        -98.94335189
 C          1.9244539253        0.7595254993        0.5509056542
 C          2.2400801302        0.1852822522       -0.7035136037
 C          2.6575640449       -1.2212898012       -0.6711411409
 C          2.6581322070       -1.8923430482        0.4948075375
 C          3.0308828836       -3.3381041228        0.6836589060
 C          4.5402260458       -3.5802163818        0.8248857572
 C          5.3479975665       -3.4247705400       -0.4642915202
 H          6.3421687746       -3.8315902689       -0.2692786141
 H          4.8954455259       -4.0309584032       -1.2494499324
 C          5.4941858101       -1.9758665950       -0.9496749355
 H          5.2520946308       -1.2920290102       -0.1328891972
 H          6.5337171561       -1.7881449948       -1.2274337998
 C          4.6308654602       -1.6228671912       -2.1608969044
 H          4.9516497730       -2.2106385063       -3.0236925988
 H          4.7851173862       -0.5666851135       -2.3952556792
 C          3.1270678947       -1.8450532927       -1.9508819877
 H          2.5889943795       -1.3614197730       -2.7698634194
 H          2.8973152694       -2.9103098213       -1.9621036844
 H          4.9319510265       -2.9007736022        1.5853899425
 H          4.6725420003       -4.6009268985        1.1909986184
 H          2.5396972968       -3.6666410941        1.6022699877
 H          2.6406572668       -3.9273890144       -0.1466402218
 O          2.2927158010       -1.3177241395        1.6731151061
 C          1.9338237841        0.0190550019        1.7313410874
 O          1.6496050594        0.4260615387        2.8784014056
 H         -0.6111369413        0.5989640394        0.4004580446
 C         -0.7365197906        1.4939724452       -0.1933293858
 C          0.2707103333        2.4502958742       -0.2139106203
 C          0.0835745792        3.5952138659       -0.9780616206
 C         -1.0807379251        3.7671645863       -1.7066191703
 C         -2.0810603451        2.8138295404       -1.6817463052
 C         -1.9022084733        1.6622669074       -0.9217342538
 N         -2.8822930993        0.6562082682       -0.9065909994
 S         -3.0294923896       -0.3324221784        0.4500127073
 O         -3.0286658865        0.4686743381        1.6541837653
 O         -2.0442926846       -1.3832312586        0.3730394458
 C         -4.6567294862       -1.0068057405        0.1697846347
 C         -4.7941500596       -2.1011631774       -0.6629907959
 C         -6.0632223509       -2.6017755879       -0.9074775415
 C         -7.1676511186       -2.0029800487       -0.3196531785
 C         -7.0141735557       -0.9068001452        0.5158498452
 C         -5.7479060759       -0.4006751198        0.7637834933
 H         -5.5782004435        0.4427278131        1.4136243695
 H         -7.8737988430       -0.4454604348        0.9744977968
 H         -8.1538399713       -2.3951364432       -0.5114624485
 H         -6.1855925518       -3.4558714420       -1.5537886211
 H         -3.9057102088       -2.5375037019       -1.0891681261
 H         -3.7796461649        0.9676570511       -1.2519244665
 H         -2.9880401679        2.9498046425       -2.2506154943
 H         -1.2125284001        4.6601569001       -2.2985509649
 H          0.8505233458        4.3518210182       -1.0047723693
 C          1.5019912596        2.2138855350        0.6282151058
 H          1.2277540115        2.3954976504        1.6791042908
 C          2.6643013782        3.1149771174        0.2621959151
 C          2.8106313422        4.4634061843        0.8988052809
 C          3.7398642847        3.3509563748        1.2781906584
 H          4.7654851099        3.3950208112        0.9439555618
 H          3.6151024133        2.8844953049        2.2451408767
 H          3.2030732826        5.2746201410        0.3043516408
 H          2.0612029728        4.7614036131        1.6165902647
 H          2.9686157169        2.9972942241       -0.7714848306
 O          2.1799606077        0.8128300753       -1.7931813813
