  62
        -98.94601817
 C         -1.7358808067       -1.1682840453       -0.8076205894
 C         -2.8640346825       -0.5840398145       -0.1738417630
 C         -3.1589842770        0.8092532134       -0.5161477448
 C         -2.3949263491        1.4463444638       -1.4210528605
 C         -2.5441035734        2.8768252951       -1.8604694775
 C         -1.8399540368        3.8677532788       -0.9231245738
 C         -2.5444276245        4.1030489491        0.4136624774
 H         -2.0849412356        4.9840537573        0.8665038805
 H         -3.5954414625        4.3360004268        0.2366110397
 C         -2.4311983874        2.9312560289        1.3994209677
 H         -2.1749993111        3.3151847068        2.3903213728
 H         -1.6081233560        2.2781956083        1.0959309600
 C         -3.7077875107        2.1027837910        1.5537767497
 H         -3.4950527219        1.2765688427        2.2374541157
 H         -4.4906211561        2.7195118817        2.0020349748
 C         -4.2444477327        1.5073141706        0.2455050774
 H         -5.0078271933        0.7659638283        0.4948654314
 H         -4.6985038915        2.2873287947       -0.3652239300
 H         -0.8248727002        3.5079294779       -0.7339133111
 H         -1.7666978900        4.8237025585       -1.4474492002
 H         -3.6004971274        3.1338742932       -1.9428287240
 H         -2.0871511856        2.9512203388       -2.8496155394
 O         -1.3704484422        0.8337312744       -2.0620091395
 C         -0.9686585033       -0.4514904051       -1.7243754781
 O          0.0587920509       -0.8152337595       -2.3325260545
 O         -3.5880280167       -1.2052374545        0.6510783670
 C         -1.3392045742       -2.5487643994       -0.3091274046
 C         -0.4892800330       -2.3684703483        0.9288847156
 C         -0.8004131230       -3.0065741548        2.1223181842
 C         -0.0654837339       -2.7477271326        3.2664372947
 C          0.9609559554       -1.8216998865        3.2483260446
 C          1.2832109844       -1.1803640874        2.0557281782
 C          0.5885993422       -1.4945319631        0.8990862490
 H          0.8516775553       -1.0060147623       -0.0236727370
 N          2.2987355606       -0.2156854545        2.0121356995
 S          2.1759209353        1.1764445997        1.0741632174
 O          2.6986252188        2.2297124994        1.9229390998
 O          0.8400154622        1.3740872178        0.5693806815
 C          3.3545706012        0.8827877710       -0.2284755933
 C          2.9538085828        0.4373919905       -1.4709017809
 C          3.9198532891        0.1990386708       -2.4379914080
 C          5.2590752870        0.4076201437       -2.1506454908
 C          5.6456923528        0.8585532052       -0.8970853251
 C          4.6870792739        1.0978489133        0.0725729678
 H          4.9405064636        1.4630294069        1.0539776485
 H          6.6876282300        1.0235348061       -0.6747965829
 H          6.0034622075        0.2196262225       -2.9083181774
 H          3.6102444268       -0.1514391816       -3.4097818557
 H          1.9075272303        0.2763795172       -1.6827170020
 H          2.7048517552       -0.0011205122        2.9112872604
 H          1.5045131974       -1.5853928502        4.1506938724
 H         -0.3146774267       -3.2487237605        4.1896530245
 H         -1.6389631934       -3.6859705741        2.1581760263
 H         -2.2760850862       -3.0331903884       -0.0000649755
 C         -0.6520149430       -3.4365347493       -1.3239693480
 C         -0.7222519409       -4.9236639031       -1.1522155718
 C         -1.4814467680       -4.2601027985       -2.2608979027
 H         -1.1363010842       -4.3850386277       -3.2758872297
 H         -2.5556748832       -4.1871661421       -2.1720039709
 H          0.1472753863       -5.5107188405       -1.4041084298
 H         -1.2840077608       -5.3064714486       -0.3137528023
 H          0.2659269337       -3.0174168389       -1.7134043804
