  62
        -98.94043043
 C         -2.4763506494       -1.2348964199       -0.0176588495
 C         -2.4016324390       -0.0095456602       -0.7221599899
 C         -3.6864325089        0.6563373899       -0.9827868503
 C         -4.8277164691        0.0725556903       -0.5735330903
 C         -6.1968963089        0.6693110605       -0.7205396407
 C         -6.5732327190        1.5035536510        0.5122355590
 C         -5.4920682288        2.4954832909        0.9413630888
 H         -4.6133061190        1.9421436509        1.2806805891
 H         -5.8781928089        3.0448545313        1.8026515786
 C         -5.0715623985        3.4883213605       -0.1512203715
 H         -5.0120666484        4.4868505606        0.2867632282
 H         -5.8305777084        3.5219736703       -0.9335491816
 C         -3.7082707185        3.1979822200       -0.7820917512
 H         -2.9578202286        3.0712877301        0.0028265690
 H         -3.4150241182        4.0680347898       -1.3758052614
 C         -3.6473892785        1.9738093997       -1.7045220707
 H         -2.6863437685        1.9996312493       -2.2271287706
 H         -4.4448407784        2.0320558196       -2.4481607009
 H         -6.7630037492        0.8231308213        1.3454421692
 H         -7.4974873688        2.0419278011        0.2953339787
 H         -6.9161416191       -0.1437195594       -0.8315344305
 H         -6.2226479387        1.2894600602       -1.6142991409
 O         -4.8595030194       -1.1191868495        0.0760698401
 C         -3.6894935695       -1.7939807696        0.3832704505
 O         -3.8581010098       -2.8609671494        1.0072761809
 O         -1.3199988289        0.5055789895       -1.1118052499
 C         -1.2031919896       -1.9887876501        0.3220949810
 C         -0.2693286995       -1.0905986800        1.0964220108
 C         -0.7585917996       -0.4282617795        2.2199370105
 C          0.0529253505        0.4174539206        2.9496882503
 C          1.3683006706        0.6234293902        2.5720466805
 C          1.8722026606       -0.0449695002        1.4630588508
 C          1.0566869706       -0.9053521203        0.7397139809
 H          1.4683574506       -1.4054835107       -0.1196978488
 N          3.2230021107        0.1124790694        1.0969399409
 S          3.6501360410        0.2764469288       -0.5293588591
 O          3.0118053213        1.4398566987       -1.1048103496
 O          3.4421674709       -0.9772437414       -1.2065803087
 C          5.3999248210        0.5711942385       -0.3443324089
 C          6.2294496708       -0.5097034915       -0.1132626284
 C          7.5865589908       -0.2882897717        0.0579962417
 C          8.0892298210        1.0031141482       -0.0032727087
 C          7.2449653813        2.0778140882       -0.2379732492
 C          5.8862650912        1.8630198684       -0.4091351493
 H          5.1936578214        2.6663502185       -0.6035079797
 H          7.6388392814        3.0800880981       -0.2890780394
 H          9.1461087710        1.1726370580        0.1292618514
 H          8.2464929306       -1.1215575918        0.2378911621
 H          5.7949522806       -1.4951367315       -0.0826008181
 H          3.6701870708        0.8476497195        1.6300293607
 H          1.9994141506        1.2953606703        3.1342262903
 H         -0.3426857996        0.9293693310        3.8143359801
 H         -1.7911707496       -0.5808102892        2.5057379604
 H         -1.5052986598       -2.8187351198        0.9780989312
 C         -0.5853597995       -2.5644106606       -0.9347126387
 C          0.2515964403       -3.8049161607       -0.8623729382
 C         -1.1125976996       -3.8559645807       -1.4803374684
 H         -1.1923629695       -3.9685450810       -2.5511766283
 H         -1.9078486498       -4.3366991904       -0.9290581983
 H          1.1148974604       -3.8781464511       -1.5067489280
 H          0.3850431101       -4.2599245104        0.1075015420
 H         -0.3002984892       -1.7990609909       -1.6489621490
