  62
        -98.94586149
 C         -1.2455348609       -0.8930346603       -0.4666277784
 C         -2.3986403708       -1.1994722990        0.3018414523
 C         -3.1980043803       -0.0620317581        0.7655732610
 C         -2.7931329599        1.1902365714        0.4881547094
 C         -3.4745594993        2.4589432822        0.9252087279
 C         -4.6317025794        2.8957099915        0.0161272177
 C         -5.8982212897        2.0452596420        0.1221516791
 H         -6.1917370094        1.9628011935        1.1690963592
 H         -6.6915732196        2.5864894817       -0.3971154814
 C         -5.7727189103        0.6438642312       -0.4916319792
 H         -6.6507905305        0.4356522908       -1.1069839287
 H         -4.9032827105        0.6125857301       -1.1520888794
 C         -5.6567500505       -0.4875549775        0.5297890422
 H         -5.5357873509       -1.4284783582       -0.0128287067
 H         -6.5779480603       -0.5511904065        1.1131775925
 C         -4.4748961502       -0.3453640967        1.4980820917
 H         -4.6768584797        0.4393847343        2.2272470308
 H         -4.3492958904       -1.2920209061        2.0294666529
 H         -4.8861151390        3.9235953319        0.2850450764
 H         -4.2804680197        2.8993319401       -1.0181813924
 H         -3.8355802091        2.3446738436        1.9480196482
 H         -2.7109246591        3.2399633719        0.9144254168
 O         -1.6719400800        1.4482362301       -0.2312914012
 C         -0.8751822905        0.4262435992       -0.7325109502
 O          0.0985984195        0.8422032881       -1.3898519609
 H          1.5476227894       -0.3882907209       -0.1428999897
 C          1.6178763592       -1.3407823703        0.3562090314
 C          0.6974186788       -2.3374962503        0.0651127629
 C          0.8030026685       -3.5581306795        0.7209924544
 C          1.7998907287       -3.7678987287        1.6575675044
 C          2.6929736491       -2.7597327186        1.9720342029
 C          2.5940603794       -1.5349174394        1.3209683014
 N          3.4795712798       -0.4871953794        1.6098351299
 S          2.9367056403        1.0972962407        1.5513013580
 O          3.8933526908        1.8265751314        2.3624178869
 O          1.5585248105        1.2079922518        1.9734194182
 C          3.1513608501        1.5984978686       -0.1415811726
 C          2.3631389303        2.6184370582       -0.6324659937
 C          2.5643551402        3.0538613365       -1.9323208343
 C          3.5451469298        2.4645834352       -2.7134551738
 C          4.3305521295        1.4420999756       -2.2038154727
 C          4.1373026697        1.0044833872       -0.9037905721
 H          4.7246698995        0.2075805876       -0.4787666313
 H          5.0895856592        0.9819021245       -2.8161119023
 H          3.6942784196        2.8018022739       -3.7273352043
 H          1.9467228403        3.8427524662       -2.3307498751
 H          1.5967435706        3.0370627293        0.0004612359
 H          4.1018102999       -0.6467233786        2.3886535399
 H          3.4561799692       -2.9132432780        2.7196666429
 H          1.8717394285       -4.7198572681        2.1613637956
 H          0.0850021382       -4.3364461496        0.5086569056
 C         -0.4103970114       -2.0765396412       -0.9277544771
 H         -1.0910260217       -2.9387512609       -0.9018596359
 C          0.1436292083       -1.9424451831       -2.3318926975
 C          0.5252862477       -3.1822410942       -3.0818516360
 C         -0.6838486921       -2.3986526243       -3.4943842267
 H         -0.6448327622       -1.8259746155       -4.4086041474
 H         -1.6583236122       -2.8140735137       -3.2817732259
 H          1.3984749475       -3.1508266253       -3.7147159962
 H          0.3698075375       -4.1315953235       -2.5922426948
 H          0.7531431486       -1.0595005435       -2.4709362087
 O         -2.7461926511       -2.3783830385        0.5842930538
