  62
        -98.94571972
 C          0.9585119697        1.9756449132       -0.3569354317
 C          1.2015527810        0.7388335342       -1.0049011977
 C          2.5143762335        0.1311923163       -0.7452636726
 C          3.3457982174        0.6779423546        0.1580672775
 C          4.7080035133        0.1657582654        0.5404736295
 C          4.6787260772       -0.9690398488        1.5731521244
 C          4.2255210949       -2.3276067972        1.0371150084
 H          4.7932422254       -2.5705413207        0.1380960615
 H          4.4806421295       -3.0706020087        1.7955331319
 C          2.7227189391       -2.4282929797        0.7405707739
 H          2.3378116800       -3.3727302390        1.1343959101
 H          2.1814538011       -1.6349619580        1.2627012539
 C          2.3588757070       -2.3771064375       -0.7427555516
 H          2.7528750496       -3.2616899000       -1.2489637967
 H          1.2694282571       -2.3953683648       -0.8200321326
 C          2.8595194458       -1.1300358675       -1.4792902857
 H          3.9367794468       -1.1908710701       -1.6346521303
 H          2.3648390584       -1.0919083295       -2.4530922398
 H          4.0299276066       -0.6721091664        2.4008098587
 H          5.6922722151       -1.0780236637        1.9666730427
 H          5.2403222516       -0.1660032501       -0.3515814838
 H          5.2469048089        1.0116159962        0.9729163847
 O          3.0338212807        1.8127784708        0.8390571984
 C          1.8553277511        2.4910250773        0.5833451725
 O          1.7197802976        3.5410683030        1.2460705530
 H         -1.1846749961        0.3121757205       -0.0987612493
 C         -1.7273962636        1.0420662823        0.4787459300
 C         -1.4007270868        2.3848624844        0.3629980562
 C         -2.1104316477        3.3145418475        1.1134182822
 C         -3.1151682058        2.9036269100        1.9712912535
 C         -3.4153017487        1.5606401783        2.1104127148
 C         -2.7108069890        0.6239690021        1.3622650546
 N         -2.9923581418       -0.7457182343        1.4708275125
 S         -1.7649104374       -1.8809398283        1.3687899733
 O         -2.2143539841       -2.9838009268        2.1961846005
 O         -0.4845717532       -1.3175673194        1.7297986715
 C         -1.7702575391       -2.4366644494       -0.3239803929
 C         -1.0023976818       -3.5498033850       -0.6068279665
 C         -0.9733599029       -4.0393994405       -1.9024434139
 C         -1.7115791303       -3.4087869790       -2.8915718258
 C         -2.4840859524       -2.2992068927       -2.5900665477
 C         -2.5196090077       -1.8060913694       -1.2946079978
 H         -3.1132580840       -0.9436248974       -1.0404448543
 H         -3.0582659585       -1.8095851447       -3.3602800617
 H         -1.6841055325       -3.7846662429       -3.9022406382
 H         -0.3720022649       -4.9036326918       -2.1349212820
 H         -0.4469910585       -4.0108229480        0.1951154288
 H         -3.6647927703       -0.9928472695        2.1816291274
 H         -4.1838181990        1.2361257253        2.7954490993
 H         -3.6591696601        3.6339780142        2.5508294838
 H         -1.8572923098        4.3616166924        1.0369570934
 C         -0.2922896405        2.8149747645       -0.5673356384
 H         -0.0116269488        3.8420478874       -0.2942817675
 C         -0.7845583717        2.8172693432       -2.0022189210
 C         -1.6232582305        3.9605866766       -2.4846191870
 C         -0.2149610322        3.8049198605       -2.9735493507
 H         -0.0502552933        3.4876525625       -3.9920746527
 H          0.5321928608        4.4934099888       -2.6055498867
 H         -2.4308018527        3.7522649685       -3.1692336672
 H         -1.8314088933        4.7597627001       -1.7895722412
 H         -1.0133802395        1.8276625546       -2.3743265907
 O          0.3928083905        0.1558331591       -1.7747703641
