  62
        -98.94108794
 C          1.6254063652        1.5782423434       -0.2229278115
 C          2.6222952171        0.8913204031        0.5070692471
 C          3.0887861439       -0.3769574748       -0.0667024794
 C          2.5670846709       -0.8037709782       -1.2308597523
 C          2.8762497294       -2.1126563373       -1.9002987282
 C          2.0485795886       -3.2373645039       -1.2450290599
 C          2.8746354706       -4.2717813003       -0.4774242664
 H          2.1782810842       -4.8488417528        0.1352777068
 H          3.3352836161       -4.9585899733       -1.1914172469
 C          3.9871079688       -3.7192148085        0.4190918724
 H          4.2944283154       -4.5320677139        1.0806354430
 H          4.8567658761       -3.4669107289       -0.1897386084
 C          3.6146625760       -2.5014252337        1.2748492686
 H          4.0609578049       -2.6264601553        2.2638916645
 H          2.5331890809       -2.4510262492        1.4162173285
 C          4.1106925556       -1.1540676948        0.7141905346
 H          4.3888999103       -0.5036431991        1.5487086025
 H          5.0052941172       -1.3120629945        0.1059710938
 H          1.3161402045       -2.7783237420       -0.5761573983
 H          1.4777529767       -3.7628747493       -2.0128661917
 H          2.6066287896       -2.0111656270       -2.9520002083
 H          3.9407294254       -2.3245931879       -1.8296264544
 O          1.6200298273       -0.1106219666       -1.9103727166
 C          1.0780783727        1.0544653415       -1.3937431799
 O          0.1422362547        1.5256453816       -2.0683519203
 O          3.0898478107        1.3154594169        1.6013988101
 C          0.9981803766        2.8284742461        0.3762009803
 C         -0.4348602930        2.4822642746        0.6960390128
 C         -1.5399010094        3.1706337386        0.2149335305
 C         -2.8194873689        2.6868926525        0.4349964317
 C         -3.0211613631        1.4968751615        1.1110511468
 C         -1.9217258291        0.8202370750        1.6214240069
 C         -0.6496140986        1.3298510626        1.4436085119
 H          0.2011854332        0.7845427070        1.8333878179
 N         -2.1118107504       -0.4627913866        2.2201603689
 S         -1.7232020279       -1.6641079279        1.0936601137
 O         -1.9498401324       -2.9250468882        1.7686218996
 O         -0.3902655645       -1.4867714931        0.5572085876
 C         -2.9548028859       -1.3964830232       -0.1563363514
 C         -2.6636991201       -0.5890680677       -1.2377926754
 C         -3.6599874805       -0.3419239606       -2.1698434912
 C         -4.9183160116       -0.8996697037       -2.0039887253
 C         -5.1928715842       -1.7089441251       -0.9112696710
 C         -4.2037304230       -1.9582917924        0.0258372285
 H         -4.3659873962       -2.5796914486        0.8911194901
 H         -6.1724810083       -2.1412349016       -0.7860489350
 H         -5.6889877402       -0.7009707723       -2.7319983582
 H         -3.4407463272        0.2913603591       -3.0145008014
 H         -1.6770311482       -0.1624056085       -1.3398821598
 H         -1.5266595476       -0.6008557989        3.0345282604
 H         -4.0075699589        1.0831474011        1.2430392280
 H         -3.6676904296        3.2277334863        0.0450267329
 H         -1.3976305600        4.0735983541       -0.3558101213
 H          1.5391366261        3.0099852857        1.3162128133
 C          1.1584253741        4.0284367209       -0.5292669253
 C          1.1130595961        5.4114149395        0.0471267465
 C          2.4116882429        4.8446847153       -0.4400221623
 H          2.8373890106        5.2348967076       -1.3520712750
 H          3.1484017531        4.5453833249        0.2912403406
 H          0.6491979884        6.1960636134       -0.5307998571
 H          0.9692707819        5.5035692776        1.1130044484
 H          0.7359166377        3.8672792511       -1.5141169073
