  62
        -98.93464546
 C         -1.8337183500       -1.0070423996       -0.1196347902
 C         -2.2870346902        0.2709585006        0.2838432289
 C         -3.7291949503        0.3924035206        0.5819176384
 C         -4.5237768601       -0.6891521895        0.4900093289
 C         -6.0009385802       -0.8712553095        0.7707156387
 C         -6.9252246004        0.3353517105        0.9117085877
 C         -7.1285290801        1.1389532496       -0.3721387529
 H         -7.7044770399        0.5318130591       -1.0751392826
 H         -7.7235321303        2.0226407097       -0.1313672436
 C         -5.8513317000        1.5791245393       -1.0833997128
 H         -5.2993708398        0.7005848692       -1.4238301422
 H         -6.1418151698        2.1404933287       -1.9756673633
 C         -4.9165101803        2.4650099600       -0.2618300732
 H         -4.1389503802        2.8360711696       -0.9354228932
 H         -5.4671919305        3.3279710501        0.1176182461
 C         -4.2135210005        1.7730553308        0.9193716874
 H         -3.3229143006        2.3565678110        1.1712878973
 H         -4.8492770307        1.7522002113        1.8013063873
 H         -6.5824798906        0.9815612610        1.7143822273
 H         -7.9009151404       -0.0546395494        1.2142759777
 H         -6.3771258599       -1.5179951601       -0.0283724610
 H         -6.0567806104       -1.4590317689        1.6937087790
 O         -4.0290600799       -1.9138243697        0.1423130698
 C         -2.6953463998       -2.1045338198       -0.1678486597
 O         -2.4016261596       -3.2811062099       -0.4581038189
 H          1.5220210800        0.7297227603       -0.7705094505
 C          1.4478727398        0.3479798309        0.2334121897
 C          0.5291259698       -0.6384949190        0.5522887801
 C          0.4409987596       -1.0659702981        1.8752496504
 C          1.2406527793       -0.5091826674        2.8532696902
 C          2.1628375692        0.4711702825        2.5294503698
 C          2.2610310795        0.9026826216        1.2131515196
 N          3.1829512095        1.9018250015        0.8553784792
 S          4.1674212998        1.6755405508       -0.4759379204
 O          5.2378420297        2.6332136710       -0.3059199708
 O          3.4062043501        1.7812039599       -1.6935677407
 C          4.7945781300        0.0178763110       -0.2761462292
 C          4.1784537602       -1.0309940095       -0.9276288687
 C          4.6273069003       -2.3213871993       -0.6946252978
 C          5.6801155701       -2.5391753287        0.1804759626
 C          6.2941311899       -1.4741984782        0.8223122321
 C          5.8450467098       -0.1831775684        0.5981345811
 H          6.2997607696        0.6726195620        1.0702690507
 H          7.1167895197       -1.6469265677        1.4973244224
 H          6.0251922702       -3.5452050885        0.3598608033
 H          4.1509142705       -3.1499148697       -1.1941835574
 H          3.3681957704       -0.8204013900       -1.6060934591
 H          3.7139405093        2.2719699921        1.6302800491
 H          2.7887851890        0.9095200330        3.2919244997
 H          1.1518224390       -0.8438346468        3.8758519104
 H         -0.2793939504       -1.8329204981        2.1270416807
 C         -0.3799948898       -1.2747173997       -0.4701142697
 H         -0.2674593597       -2.3682781296       -0.3826653390
 C         -0.0137612895       -0.9150556106       -1.9021242998
 C         -1.0317717693       -0.9529101414       -3.0014771501
 C         -0.4628006395        0.3576120390       -2.5516740407
 H          0.2312016606        0.8729455586       -3.2006300409
 H         -1.0861956297        1.0199629593       -1.9722690413
 H         -0.7337769990       -1.3431738319       -3.9630789797
 H         -2.0515953393       -1.1875921813       -2.7324100002
 H          0.9800572706       -1.2651574006       -2.1656163594
 O         -1.5394183303        1.2754933907        0.4034893184
