  62
        -98.94702416
 C         -2.2416383608       -0.6511821827       -0.4858188802
 C         -1.4634173877        0.3259570049       -1.1511240402
 C         -1.8408677635        1.7271938161       -0.9134173004
 C         -2.8582106128        2.0104393792       -0.0820657605
 C         -3.3150975686        3.3922346106        0.2841833593
 C         -2.6048531172        3.9054548186        1.5439320693
 C         -1.0835768277        3.7539976840        1.5082193995
 H         -0.6919061464        4.1976392529        2.4268592895
 H         -0.8190309509        2.6935440632        1.5337976896
 C         -0.4054102055        4.4081701318        0.2964604295
 H         -1.0757990333        5.1400058238       -0.1570793806
 H          0.4796771161        4.9462746392        0.6426659796
 C          0.0657809116        3.4127323303       -0.7652271103
 H          0.6235864991        2.6110803286       -0.2743832002
 H          0.7523007732        3.9305195782       -1.4409830403
 C         -1.0418538902        2.7850268036       -1.6218539104
 H         -1.6975380878        3.5683252255       -2.0084932405
 H         -0.5660562116        2.2858317221       -2.4708784703
 H         -2.8624817540        4.9580289794        1.6785323692
 H         -2.9823617990        3.3501881798        2.4059014693
 H         -3.1251204765        4.0641959700       -0.5506337007
 H         -4.3895456387        3.3578800239        0.4740445292
 O         -3.5780533457        1.0496968614        0.5520798395
 C         -3.2811179898       -0.2897243095        0.3767685096
 O         -4.0169550222       -1.0625494072        1.0252251596
 H          0.5135616376       -1.1736465010       -0.2540211899
 C          0.2801188652       -1.9305452403        0.4745372002
 C         -0.9559944667       -2.5604434465        0.4378968601
 C         -1.2337431097       -3.5459832456        1.3769640001
 C         -0.3000754309       -3.8774835583        2.3429062803
 C          0.9081942612       -3.2087125720        2.4093953503
 C          1.1957818343       -2.2195592529        1.4740407903
 N          2.4052969964       -1.5118150666        1.5306394104
 S          2.4551481315        0.1578790832        1.3084950102
 O          3.3169484928        0.6434715507        2.3694151603
 O          1.1313199732        0.7253927472        1.2584018900
 C          3.3280561522        0.3367049505       -0.2342523897
 C          2.6509319028        0.4825508724       -1.4272585598
 C          3.3835920732        0.5965649001       -2.5999111997
 C          4.7681186231        0.5602351359       -2.5632432896
 C          5.4338496925        0.4117151940       -1.3555025195
 C          4.7093547921        0.2987092063       -0.1811905395
 H          5.1848443217        0.1970840849        0.7803073805
 H          6.5112427125        0.3844403207       -1.3265015793
 H          5.3299409335        0.6496271841       -3.4797487895
 H          2.8595024637        0.7105884116       -3.5354650898
 H          1.5719034228        0.5046103657       -1.4446219099
 H          2.9947801655       -1.7735480683        2.3077989404
 H          1.6235724104       -3.4421389741        3.1839274504
 H         -0.5249181833       -4.6466331976        3.0664168903
 H         -2.1955517912       -4.0373488527        1.3604251501
 C         -1.9880848153       -2.1489092335       -0.5859438701
 H         -2.9373208868       -2.6300313806       -0.3115072102
 C         -1.5974216066       -2.6216069648       -1.9718975300
 C         -1.8568897408       -4.0474074440       -2.3511881399
 C         -2.6701506174       -2.9480861516       -2.9648330401
 H         -2.5053162466       -2.6959102222       -4.0013893701
 H         -3.6964864571       -2.8339231985       -2.6465216902
 H         -2.3349319829       -4.6822547425       -1.6205073599
 H         -1.1309043523       -4.5552543863       -2.9670897798
 H         -0.6973609651       -2.1553009375       -2.3485001599
 O         -0.5002235684        0.0696359019       -1.9222536901
