  62
        -98.92986532
 C         -1.6503691323       -0.0474333717       -0.5887440933
 C         -2.8105856807        0.7617293168       -0.6026689272
 C         -4.0714652879        0.1133118608       -0.1772176989
 C         -4.0593268596       -1.1797537326        0.1887522248
 C         -5.2014399266       -2.0425261510        0.6635873718
 C         -6.5238856272       -1.9244915166       -0.1095714539
 C         -7.6323091066       -1.2307565300        0.6841365901
 H         -8.5986346841       -1.5506660069        0.2877763669
 H         -7.5789481528       -1.5668386922        1.7218116214
 C         -7.6004034787        0.2961842162        0.6456786404
 H         -7.9059948424        0.6392799813       -0.3452426250
 H         -8.3441618859        0.6602031563        1.3585192009
 C         -6.2491469371        0.9312429872        0.9799370681
 H         -5.7756583295        0.4080217440        1.8099051876
 H         -6.4353335119        1.9543868660        1.3136291163
 C         -5.2881754615        0.9977433666       -0.2166164736
 H         -5.8342730900        0.8052775403       -1.1447003210
 H         -4.8881187546        2.0123126455       -0.3100001722
 H         -6.8621430198       -2.9346307372       -0.3462690804
 H         -6.3563677188       -1.4112871412       -1.0552028149
 H         -5.3725066373       -1.8384504435        1.7235021972
 H         -4.8257238078       -3.0663473012        0.6014155286
 O         -2.9122885350       -1.9187028088        0.1976807665
 C         -1.6981824646       -1.3826654315       -0.1811236955
 O         -0.7436966337       -2.1839302336       -0.1240141819
 O         -2.8218840097        1.9719236359       -0.9444278344
 C         -0.2748338226        0.4491013446       -0.9993092035
 C          0.4627847951        1.0701897561        0.1584261240
 C         -0.1409002502        2.0004550935        0.9980542086
 C          0.5736331768        2.5702302219        2.0361044742
 C          1.9023228537        2.2427338437        2.2426716829
 C          2.5143182845        1.3134346979        1.4099224181
 C          1.7853685583        0.7221052155        0.3877265321
 H          2.2576492717       -0.0153306480       -0.2421644331
 N          3.8547322451        0.9517993465        1.5933560365
 S          4.8264858924        0.6215606684        0.2714116817
 O          6.1746442048        0.8279947465        0.7544422472
 O          4.4356851814        1.3994286775       -0.8802957382
 C          4.5786959102       -1.1140919979       -0.0326228809
 C          4.7706769336       -1.9933266034        1.0145459219
 C          4.5896065868       -3.3484916688        0.7918173229
 C          4.2236107709       -3.7993208496       -0.4674997472
 C          4.0389419877       -2.9043011978       -1.5095946291
 C          4.2188509829       -1.5473151609       -1.2930136149
 H          4.0786857994       -0.8175751936       -2.0755398150
 H          3.7516583126       -3.2562691924       -2.4875048902
 H          4.0787633404       -4.8543464554       -0.6384820269
 H          4.7308681954       -4.0489389436        1.5991701873
 H          5.0568206921       -1.6055170276        1.9779691711
 H          4.3444397745        1.4624142547        2.3131326615
 H          2.4621645409        2.7012565760        3.0436539350
 H          0.0949476254        3.2898498723        2.6832518162
 H         -1.1685022606        2.2796209926        0.8221741045
 H          0.2803525512       -0.4581091325       -1.2878560330
 C         -0.2989315144        1.3603332292       -2.2196280246
 C         -0.0532552647        2.8345671145       -2.1612414352
 C          0.9810350640        1.9303409207       -2.7576117509
 H          1.1274605700        1.9475968817       -3.8274034692
 H          1.8883201169        1.7651364951       -2.1933042094
 H         -0.6373686548        3.4648748076       -2.8142733453
 H          0.1531018162        3.2803860474       -1.2011261841
 H         -1.0254696363        1.0267435400       -2.9540486453
