  62
        -98.94269039
 C         -1.9105363794       -1.3883211001        0.4804286611
 C         -2.7878428496       -0.9649089811       -0.5484261191
 C         -3.7056789402        0.1267521486       -0.1920455196
 C         -3.6587602405        0.6787696392        1.0330552901
 C         -4.5442606111        1.7821793390        1.5454688695
 C         -4.0777146219        3.1925864491        1.1594638888
 C         -4.2729820021        3.5639398182       -0.3110617814
 H         -5.3065364320        3.3691912875       -0.5991487313
 H         -4.1103944527        4.6404211882       -0.3936272520
 C         -3.3218152517        2.8444863282       -1.2777403711
 H         -2.9066671921        3.5658703381       -1.9848048114
 H         -2.4829799615        2.4230417790       -0.7192635808
 C         -3.9751110111        1.7322450374       -2.0977759205
 H         -3.2053764709        1.2663482675       -2.7179399302
 H         -4.7300450913        2.1597649867       -2.7614842907
 C         -4.6337201505        0.6320702675       -1.2555739199
 H         -5.5575242707        1.0005721172       -0.8100046001
 H         -4.8730409701       -0.2064041530       -1.9141766595
 H         -4.6445683523        3.9001838791        1.7690531384
 H         -3.0232344319        3.2960316698        1.4244991887
 H         -5.5641739410        1.6259781183        1.1926712696
 H         -4.5386516011        1.7039548696        2.6349087695
 O         -2.7784935403        0.2660153602        1.9839344503
 C         -1.8850722297       -0.7585293594        1.7284861008
 O         -1.1261933496       -1.0224777885        2.6843006309
 H          1.4756528510       -2.0565454677        1.4507445315
 C          1.4914272308       -1.8074668783        0.3981006313
 C          0.3421066409       -1.9853678793       -0.3584480586
 C          0.3644308607       -1.6259282200       -1.7018400687
 C          1.5197148204       -1.1205327497       -2.2704348790
 C          2.6696839104       -0.9579182786       -1.5170588091
 C          2.6504377306       -1.2956378980       -0.1703495789
 N          3.8045463005       -1.1193860369        0.6106320210
 S          4.7034547497        0.2741265535        0.4033515802
 O          5.5671146498        0.1268146033       -0.7416281897
 O          5.3687920296        0.4858556545        1.6693948401
 C          3.5186959190        1.5733994727        0.0964035096
 C          3.6224343786        2.3393256421       -1.0469035008
 C          2.6889566380        3.3381640215       -1.2726045414
 C          1.6702871879        3.5507193814       -0.3568766615
 C          1.5812447783        2.7744426820        0.7885728389
 C          2.5132179089        1.7762545126        1.0207140295
 H          2.4642678492        1.1610760330        1.9053635198
 H          0.7882845782        2.9365614919        1.5016028889
 H          0.9408748675        4.3252966709       -0.5340358819
 H          2.7564188577        3.9446627811       -2.1612917817
 H          4.4276130787        2.1371183122       -1.7344955807
 H          3.6759178906       -1.3326522665        1.5887114311
 H          3.5799507702       -0.5781233884       -1.9519935593
 H          1.5269206203       -0.8488088002       -3.3149722992
 H         -0.5357114892       -1.7277969508       -2.2877312587
 C         -0.9053642488       -2.5170842096        0.3053128617
 H         -0.6318939486       -2.8278635690        1.3228228619
 C         -1.4652416581       -3.7221236003       -0.4224300576
 C         -0.7713967274       -5.0410279999       -0.2708904970
 C         -2.1083760275       -4.8189258503        0.3690661029
 H         -2.9709566773       -5.3167876310       -0.0476415768
 H         -2.1476910176       -4.7062604397        1.4431327029
 H          0.0971199026       -5.0796516191        0.3696471731
 H         -0.7133058471       -5.6937645303       -1.1281853966
 H         -1.8992327483       -3.4882847611       -1.3845616878
 O         -2.8287966094       -1.4574033018       -1.7053675288
