  62
        -98.93813794
 C         -2.5111884679       -1.0203970577        0.2981501688
 C         -2.5303401662       -0.0800186433       -0.7587814734
 C         -2.9588828285        1.2874959014       -0.4144423866
 C         -3.3207870766        1.5773826237        0.8460306977
 C         -3.8232989261        2.8831642485        1.4093949262
 C         -3.1139756536        4.1704893702        0.9683053398
 C         -1.6071798276        4.0288485463        0.7067558068
 H         -1.2422888490        3.0692785175        1.0786663313
 H         -1.0761658439        4.8108549082        1.2529150427
 C         -1.2400307066        4.1596123187       -0.7731276132
 H         -0.1783552569        4.4077257539       -0.8499289915
 H         -1.8069971386        4.9858220224       -1.2089244418
 C         -1.4604080744        2.8993397765       -1.6076291448
 H         -0.7385994647        2.1362080550       -1.2989105894
 H         -1.2390293574        3.1421772106       -2.6505080671
 C         -2.8724548575        2.2934112971       -1.5257387542
 H         -3.0587754598        1.7420715577       -2.4513877169
 H         -3.6270832073        3.0699794815       -1.4270736505
 H         -3.2768391532        4.9050313686        1.7587825245
 H         -3.5925117115        4.5629263988        0.0720980824
 H         -4.8887933513        2.9654304670        1.1753909148
 H         -3.7391964696        2.7733639562        2.4932174142
 O         -3.3139244243        0.6353545226        1.8307281370
 C         -2.8893217845       -0.6574444852        1.5942326314
 O         -2.9048915673       -1.3909123477        2.6031748404
 H         -0.2969240686       -1.2739999933       -1.5780462332
 C          0.2236036944       -1.7480686975       -0.7591076932
 C         -0.4999015574       -2.4323893859        0.2073745340
 C          0.1926473886       -3.0160896609        1.2616749242
 C          1.5699292122       -2.9059135908        1.3491074475
 C          2.2813635115       -2.1881067319        0.4031486195
 C          1.5954851883       -1.6007864698       -0.6505310911
 N          2.3022411437       -0.7798712274       -1.5697930911
 S          2.5318995847        0.7687667699       -0.9311460696
 O          1.4336774159        1.1553505537       -0.0732507671
 O          2.8001906051        1.6302057190       -2.0620853955
 C          4.0154291971        0.5712882513        0.0309850438
 C          3.9468092577        0.5978367671        1.4096674304
 C          5.1100241723        0.4146047650        2.1413203883
 C          6.3133613160        0.2077377689        1.4841529392
 C          6.3653114055        0.1852216222        0.0981175773
 C          5.2062891325        0.3680100835       -0.6389072683
 H          5.1988911644        0.3635942336       -1.7160627425
 H          7.3031269813        0.0246913724       -0.4087267800
 H          7.2161543507        0.0634251755        2.0564114237
 H          5.0707291615        0.4315660955        3.2186435153
 H          2.9873466905        0.7566089668        1.8760281360
 H          1.8024193089       -0.6794202377       -2.4443813144
 H          3.3508685091       -2.0747534491        0.4766721590
 H          2.0926355389       -3.3672498095        2.1729157727
 H         -0.3610829214       -3.5362997702        2.0298438808
 C         -2.0086535602       -2.4509346531        0.1488537629
 H         -2.3749498308       -2.9899957591        1.0326349049
 C         -2.5196857643       -3.1566279855       -1.0906291294
 C         -2.5007386308       -4.6542192371       -1.1288385576
 C         -3.8043970631       -3.9233110347       -1.0188314164
 H         -4.4624277027       -3.9043691276       -1.8744848495
 H         -4.3223018965       -3.9422488302       -0.0708182653
 H         -2.1357768675       -5.1720555241       -0.2548200334
 H         -2.2616719982       -5.1416071375       -2.0614604339
 H         -2.3112107071       -2.6247294690       -2.0091138968
 O         -2.2172714895       -0.3410531460       -1.9528711097
