  62
        -98.93800335
 C          2.4287145216       -0.3993118703       -0.4733068590
 C          3.2303568155       -0.3719964240        0.6951815134
 C          4.3189114610        0.6179255368        0.6941961672
 C          4.4701215721        1.4572455302       -0.3448860511
 C          5.5109463767        2.5363995051       -0.4714703505
 C          6.8656504369        2.0386276997       -0.9937685295
 C          7.6818810168        1.2117163523        0.0004995978
 H          8.6883440245        1.1166441806       -0.4119048035
 H          7.7659588983        1.7564790638        0.9413344497
 C          7.1228449159       -0.1932311086        0.2652054140
 H          7.9356477120       -0.9220660688        0.2255116966
 H          6.4167646815       -0.4589098143       -0.5250996686
 C          6.4337280876       -0.3560488414        1.6200621278
 H          6.0454286708       -1.3755559197        1.6867625578
 H          7.1642825621       -0.2215780557        2.4208535704
 C          5.2668229004        0.6118376627        1.8556855390
 H          4.7127634682        0.2727326125        2.7342798176
 H          5.6438269392        1.6164808371        2.0452973383
 H          6.6968454691        1.4546796939       -1.9015674241
 H          7.4518350537        2.9183819675       -1.2692888387
 H          5.6494698287        3.0274078637        0.4921474789
 H          5.1156315014        3.2667316894       -1.1807585772
 O          3.6493018882        1.4300188364       -1.4292134878
 C          2.6339035692        0.4953628208       -1.5272409879
 O          1.9850233160        0.5566799057       -2.5920248087
 O          3.0649180109       -1.1170278002        1.6934005736
 C          1.2870671785       -1.3821948199       -0.6765104365
 C          0.0015134060       -0.8280565221       -0.1185114897
 C         -0.0846232243       -0.3866728976        1.1983681492
 C         -1.2754184760        0.1143250325        1.6915432891
 C         -2.3986435872        0.1919404233        0.8862264405
 C         -2.3231223876       -0.2430500509       -0.4296458121
 C         -1.1269953624       -0.7513936906       -0.9210367323
 H         -1.0689578836       -1.0783484694       -1.9509026217
 N         -3.4548631793       -0.1509006055       -1.2558229241
 S         -4.9174397804       -0.7466693506       -0.6862521795
 O         -4.7140751627       -1.8135888676        0.2656876095
 O         -5.6765169671       -1.0769222415       -1.8724212626
 C         -5.6717988913        0.6539745637        0.1123015928
 C         -6.0802282066        0.5601757530        1.4282189946
 C         -6.6767129705        1.6603979284        2.0245498400
 C         -6.8541609648        2.8277512962        1.2979382727
 C         -6.4407677524        2.9046678596       -0.0238808891
 C         -5.8449743718        1.8081975719       -0.6261170758
 H         -5.5138814732        1.8262099178       -1.6511340054
 H         -6.5805590417        3.8140981834       -0.5858285180
 H         -7.3181325276        3.6826245150        1.7640483462
 H         -6.9996056648        1.6024905340        3.0516011872
 H         -5.9178384953       -0.3662243999        1.9559974955
 H         -3.2918523162       -0.4401753519       -2.2093184377
 H         -3.3274521016        0.5843828189        1.2668425908
 H         -1.3297951683        0.4510842009        2.7157268472
 H          0.7898296244       -0.4469983565        1.8283431448
 H          1.1660737278       -1.4555119612       -1.7692755863
 C          1.6072077731       -2.7817982159       -0.1682095426
 C          0.9310341562       -3.4236410432        1.0017465982
 C          0.6257508121       -3.8958225383       -0.3859100310
 H          0.9947415004       -4.8592728163       -0.7037043654
 H         -0.3385311848       -3.6351914747       -0.7976627262
 H          1.5335466146       -4.0470774246        1.6444188991
 H          0.1707751311       -2.8669379910        1.5262080083
 H          2.6548360049       -3.0291722010       -0.3066220794
