  62
        -98.94185355
 C         -0.8296551809       -1.3410970819        0.4774095636
 C         -1.2563403246       -0.7064261170       -0.7108172785
 C         -2.2072780281        0.4088590622       -0.5496499352
 C         -2.5184987853        0.8249584218        0.6899566637
 C         -3.4970406672        1.8981619427        1.0836199885
 C         -4.8811763098        1.2909727833        1.3708789517
 C         -5.7877487746        1.1540961117        0.1482380990
 H         -6.6763132083        0.6022664025        0.4634342158
 H         -6.1145355488        2.1466699763       -0.1686780593
 C         -5.1625962836        0.4370694090       -1.0511603253
 H         -5.9747427767        0.0766152627       -1.6854666383
 H         -4.6092483157       -0.4385838891       -0.7067999714
 C         -4.2426568874        1.3418985113       -1.8846934008
 H         -4.3846467124        2.3770322343       -1.5758282597
 H         -4.5390426826        1.2888410202       -2.9342124579
 C         -2.7515580235        0.9821439637       -1.8290927090
 H         -2.5320374610        0.2223302183       -2.5856500777
 H         -2.1587202437        1.8613742076       -2.0963889949
 H         -4.7291797355        0.3105246157        1.8298052060
 H         -5.3937941625        1.9171391707        2.1040882253
 H         -3.1165969582        2.3436323795        2.0056229243
 H         -3.5625359099        2.6666788214        0.3192314989
 O         -1.9910848018        0.2541718901        1.8105282085
 C         -1.1771377752       -0.8606333353        1.7386248182
 O         -0.8299587310       -1.3215073461        2.8460260098
 O         -0.8859767557       -1.0671687937       -1.8580840920
 C          0.0469547433       -2.5776542118        0.4025434299
 C          1.3444776512       -2.2552895035       -0.2967242682
 C          1.8416422234       -2.9830401622       -1.3694810193
 C          3.0479534184       -2.6332789364       -1.9511212588
 C          3.7828853536       -1.5650566014       -1.4727983738
 C          3.3001798822       -0.8389049177       -0.3884943375
 C          2.0870626680       -1.1832681358        0.1847638900
 H          1.7197570474       -0.6219881701        1.0322346660
 N          4.0489047191        0.2190290514        0.1424781112
 S          3.3629584529        1.4844148372        0.9699270760
 O          4.4172063477        2.4764664293        1.0185402181
 O          2.8570353085        1.0474414423        2.2470029400
 C          2.0410526378        2.1235113621       -0.0419409612
 C          0.8304111195        2.4297621943        0.5431028489
 C         -0.1458776755        3.0513233311       -0.2187850228
 C          0.1004784274        3.3421825432       -1.5510752467
 C          1.3130683194        3.0059875063       -2.1324563268
 C          2.2974400051        2.3992401705       -1.3706342277
 H          3.2585573333        2.1502523402       -1.7895722440
 H          1.4967613773        3.2241753043       -3.1720708711
 H         -0.6542291448        3.8414675681       -2.1385421206
 H         -1.0894903231        3.3083141554        0.2341237303
 H          0.6745630404        2.1795926764        1.5815887608
 H          4.8684624643        0.4874044591       -0.3802045328
 H          4.7259129738       -1.2969738026       -1.9235309018
 H          3.4206965475       -3.2015603577       -2.7895684557
 H          1.2840929883       -3.8204855443       -1.7542744267
 H          0.2856513039       -2.8421862583        1.4435537049
 C         -0.7207890756       -3.7210405722       -0.2282767576
 C         -0.3755034697       -5.1385346941        0.1122832769
 C         -1.6445748342       -4.5313708672        0.6284713267
 H         -2.5834979700       -4.8598651158        0.2085648537
 H         -1.7021642927       -4.2741500360        1.6765877622
 H         -0.4461058479       -5.8881215971       -0.6612967327
 H          0.4288251928       -5.3018067719        0.8136310857
 H         -1.0440549400       -3.4993717075       -1.2387049947
