  62
        -98.94474600
 C         -1.8359668307       -0.0288589447        0.0581051511
 C         -2.8028610907       -0.8876491190        0.6332211764
 C         -4.1466984316       -0.3214827990        0.7909448518
 C         -4.3832866472        0.9489988836        0.4160541941
 C         -5.6956360212        1.6754740153        0.5358366659
 C         -6.6649309921        1.4094996647       -0.6241825152
 C         -7.3066332566        0.0213952056       -0.6313822698
 H         -7.7522095489       -0.1766568544        0.3439699307
 H         -8.1185696485        0.0480513367       -1.3608834969
 C         -6.3472141207       -1.1179859605       -1.0026774876
 H         -6.8272070977       -1.7754261843       -1.7311146397
 H         -5.4581418573       -0.7035402865       -1.4836872689
 C         -5.9115100008       -1.9888167216        0.1757121248
 H         -6.7778131346       -2.5149063862        0.5828071471
 H         -5.2060667489       -2.7371501069       -0.1941941398
 C         -5.2301647512       -1.2163410863        1.3127543531
 H         -5.9672544283       -0.6384270797        1.8696838123
 H         -4.7669301438       -1.9392120621        1.9887572191
 H         -6.1351131229        1.5711608255       -1.5658462009
 H         -7.4617593864        2.1541011037       -0.5596682420
 H         -6.1753448561        1.4134049050        1.4793147015
 H         -5.4599208885        2.7417686620        0.5496484386
 O         -3.4199104793        1.7497612928       -0.1135103496
 C         -2.1305698780        1.2800236817       -0.3230912410
 O         -1.3590344078        2.1116099248       -0.8377970681
 H          1.9653878051        0.5060169656       -1.0748161605
 C          1.7407596770        0.7591406165       -0.0524168914
 C          0.5764949384        0.3121143749        0.5517288446
 C          0.3336993657        0.6711664784        1.8761052579
 C          1.2146786836        1.4817061496        2.5631576969
 C          2.3696355057        1.9382706982        1.9515940059
 C          2.6304834152        1.5735951682        0.6376362277
 N          3.7961623487        2.0146769903       -0.0081916444
 S          4.6611546870        0.9387295838       -0.9487664460
 O          6.0071777513        1.4702825630       -0.9640518950
 O          4.0369160863        0.7741182887       -2.2366045762
 C          4.6167671647       -0.5963107076       -0.0397862760
 C          4.0549449713       -1.7179537095       -0.6123441512
 C          4.0020575031       -2.8916807590        0.1228629259
 C          4.5071462654       -2.9216133080        1.4130443674
 C          5.0752894075       -1.7871167346        1.9725964307
 C          5.1320592538       -0.6120573393        1.2417117353
 H          5.5762724389        0.2836417576        1.6442353972
 H          5.4708032706       -1.8152519314        2.9750977001
 H          4.4594493660       -3.8350088288        1.9847034272
 H          3.5650180891       -3.7762913683       -0.3126502387
 H          3.6698630771       -1.6503214549       -1.6165540572
 H          4.4054641416        2.5819333565        0.5625414267
 H          3.0560964126        2.5795184632        2.4831186756
 H          1.0042003413        1.7600326340        3.5847467371
 H         -0.5682215793        0.3151882760        2.3549957941
 C         -0.4294893225       -0.5546485545       -0.1626372559
 H         -0.4163035714       -1.5521084452        0.3021923702
 C         -0.1600762500       -0.7059354698       -1.6449535977
 C          0.7378003399       -1.7952286934       -2.1463021688
 C         -0.7414172476       -1.8821599760       -2.3690203287
 H         -1.1262386268       -1.7352382400       -3.3671341223
 H         -1.3053958283       -2.5935686514       -1.7834642259
 H          1.3746577959       -1.5856788139       -2.9931845648
 H          1.1739958074       -2.4551551663       -1.4120536002
 H         -0.1523506020        0.2450168251       -2.1668942860
 O         -2.5517383850       -2.0654853777        1.0040716401
