  62
        -98.93547412
 C         -1.7894791119       -0.4019124256        0.3411990131
 C         -2.9955375086       -0.9186017629        0.8821742077
 C         -4.2034139702       -0.1172540716        0.6644236887
 C         -4.1126863451        1.0583054237        0.0172924355
 C         -5.2474549213        2.0070262257       -0.2592602488
 C         -6.0593024518        1.6592075032       -1.5145553936
 C         -6.9651470553        0.4339132079       -1.3848884399
 H         -7.5875644720        0.5365611519       -0.4954458778
 H         -7.6308583476        0.4352785097       -2.2503254399
 C         -6.2162749874       -0.9054041180       -1.3404021367
 H         -5.1969319698       -0.7646452091       -1.7073985507
 H         -6.7024355843       -1.6167933909       -2.0118155654
 C         -6.1588109168       -1.5541926210        0.0426484174
 H         -7.1679777745       -1.8200864683        0.3648227032
 H         -5.5761572672       -2.4755727824       -0.0353333856
 C         -5.5154059278       -0.6773298552        1.1248852533
 H         -6.1932482899        0.1269801759        1.4097458079
 H         -5.3216434847       -1.3003661226        2.0013146025
 H         -5.3679436286        1.5156197324       -2.3482527683
 H         -6.6848707135        2.5240261649       -1.7475664851
 H         -5.9109148324        2.0472178188        0.6051554683
 H         -4.7997507498        2.9931301673       -0.4008719906
 O         -2.9344701405        1.5391386325       -0.4565309875
 C         -1.7490767507        0.8180713113       -0.3357696798
 O         -0.7724597549        1.3808055643       -0.8592372650
 H          1.5344313925        0.5014596654       -0.3222970147
 C          1.4707520541        0.3601981546        0.7404985014
 C          0.5034790773       -0.4582868759        1.3067363510
 C          0.4401004071       -0.5297802924        2.6994028260
 C          1.3045938675        0.1938608131        3.4966417106
 C          2.2702458933        1.0027214383        2.9249697487
 C          2.3438792000        1.0884799865        1.5401135637
 N          3.3008765196        1.9153102196        0.9410302240
 S          3.9449642177        1.6384492642       -0.5653725584
 O          5.1685870411        2.4157649320       -0.5610967794
 O          3.0084977698        1.9587461717       -1.6119543946
 C          4.3641955324       -0.0953991893       -0.6379878255
 C          4.8684079650       -0.7286897073        0.4809765098
 C          5.2369384597       -2.0614335646        0.3875918035
 C          5.1088864537       -2.7329600171       -0.8185075373
 C          4.6077405371       -2.0820109183       -1.9346399633
 C          4.2293105856       -0.7517542825       -1.8446631503
 H          3.8199288762       -0.2119187081       -2.6832450261
 H          4.5047564839       -2.6036505350       -2.8722103124
 H          5.3991258986       -3.7692524256       -0.8880553826
 H          5.6234748164       -2.5703464363        1.2558392310
 H          4.9649996557       -0.1863238784        1.4070875312
 H          3.9549017852        2.3611554713        1.5654393407
 H          2.9482260029        1.5742242314        3.5403952803
 H          1.2305607478        0.1251032008        4.5712601984
 H         -0.3155075205       -1.1550478772        3.1540442284
 C         -0.5330831174       -1.2408470333        0.5402890741
 H         -0.8718288438       -2.0407015799        1.2185769183
 C         -0.1320178409       -1.9681372764       -0.7358660735
 C          0.5477576960       -1.3787563100       -1.9339333244
 C          1.2827544859       -2.3442319335       -1.0529309237
 H          1.4808965097       -3.3345481747       -1.4338505384
 H          2.0562253781       -1.9561261915       -0.4089932196
 H          0.2177781860       -1.7275352459       -2.9029969414
 H          0.8110702836       -0.3339206080       -1.9359628647
 H         -0.8863277004       -2.7160097409       -0.9709358705
 O         -3.0586589508       -2.0036732716        1.5204026866
