  62
        -98.94479749
 C         -1.0162719806       -1.1727032912       -0.3211230900
 C         -2.0756114791       -1.3726002807        0.6034494768
 C         -2.9579947258       -0.2262919533        0.8495641398
 C         -2.7138319903        0.9338304182        0.2138451547
 C         -3.5550085807        2.1704942706        0.3349535478
 C         -4.6541649630        2.2034531680       -0.7359934538
 C         -5.4569585300        0.9065731413       -0.8372281121
 H         -4.8010972175        0.1082480936       -1.1921003795
 H         -6.2227449840        1.0560671409       -1.6016055473
 C         -6.1233227011        0.4682230559        0.4744045001
 H         -7.1499304896        0.1630166270        0.2607225845
 H         -6.1737261602        1.3110213988        1.1646408839
 C         -5.4428131963       -0.7138364854        1.1674446204
 H         -5.3058430377       -1.5285193696        0.4518013825
 H         -6.1109729878       -1.0781667097        1.9524704500
 C         -4.0882491914       -0.4144039555        1.8221870166
 H         -3.8164833425       -1.2799553346        2.4333658819
 H         -4.1813560072        0.4534547554        2.4780451365
 H         -4.1876395630        2.3924512478       -1.7054213037
 H         -5.3280025732        3.0331988254       -0.5148484459
 H         -2.9083133023        3.0384602711        0.2038062246
 H         -3.9996967082        2.2044851403        1.3275152784
 O         -1.6897759726        1.0933478909       -0.6587704776
 C         -0.8192278163        0.0538680815       -0.9571718376
 O          0.0547922462        0.3692585451       -1.7882532115
 O         -2.2746087299       -2.4685234237        1.1938231253
 C         -0.0945683886       -2.3588740471       -0.5485835921
 C          1.1122292066       -2.2760079781        0.3561532204
 C          1.4220645595       -3.3093370993        1.2320404136
 C          2.5270685594       -3.2195055323        2.0600659991
 C          3.3376533230       -2.0997440810        2.0319785342
 C          3.0313753085       -1.0563931122        1.1634785127
 C          1.9272945321       -1.1529125707        0.3297956436
 H          1.7050082276       -0.3489497264       -0.3528448348
 N          3.7988499632        0.1117990256        1.1609817820
 S          3.8381967141        1.1778196646       -0.1188660436
 O          3.9448592409        0.4942763791       -1.3865090607
 O          4.9451137591        2.0572634823        0.2031265768
 C          2.3317370920        2.1191820683       -0.0104998762
 C          1.8654452292        2.7323476606       -1.1549011169
 C          0.7400801839        3.5359459751       -1.0757871805
 C          0.1020314603        3.7088921479        0.1411744861
 C          0.5760853909        3.0780249941        1.2804824386
 C          1.7056167928        2.2789924071        1.2090407689
 H          2.0948749218        1.7731275354        2.0775027131
 H          0.0677068162        3.2028683506        2.2235536624
 H         -0.7729587792        4.3374833170        0.2007055421
 H          0.3600012380        4.0123547387       -1.9652585234
 H          2.3784939521        2.5552494688       -2.0865714506
 H          4.6507959723        0.0965606627        1.6998280902
 H          4.1971104249       -2.0254024838        2.6803526698
 H          2.7592055361       -4.0284640761        2.7358961535
 H          0.7834110548       -4.1792625396        1.2707076516
 H         -0.6775891408       -3.2405531386       -0.2480763659
 C          0.3439820612       -2.5438950997       -1.9875164783
 C          0.7140612631       -3.9155131662       -2.4637319474
 C         -0.5523280743       -3.2717629872       -2.9416617679
 H         -0.6064457859       -2.9251139415       -3.9626477191
 H         -1.4900487307       -3.6468644518       -2.5577362335
 H          1.5356832575       -4.0133385791       -3.1566624839
 H          0.6324614998       -4.7305519033       -1.7605364995
 H          0.9116129686       -1.7078134953       -2.3758088664
