  62
        -98.94274061
 C         -1.8036612399       -1.5266769300        0.2285414415
 C         -1.4684443305       -0.1639650101        0.0218117902
 C         -2.5004793909        0.8085676199        0.4140112591
 C         -3.6582854109        0.3890525199        0.9522022193
 C         -4.7954653113        1.2637350099        1.4056960382
 C         -5.7447580913        1.6885677884        0.2767455676
 C         -5.1835880416        2.7334274377       -0.6889266833
 H         -4.7954815620        3.5794817984       -0.1209922540
 H         -6.0215707116        3.0992339667       -1.2857686538
 C         -4.0978513712        2.2040105372       -1.6364143126
 H         -4.3020078811        2.5497733461       -2.6524008129
 H         -4.1350248307        1.1122938672       -1.6578759115
 C         -2.6775499914        2.6454119681       -1.2824826427
 H         -2.5959298618        3.7294199981       -1.3880080638
 H         -1.9885285411        2.1839669177       -1.9944586122
 C         -2.2298373415        2.2554150497        0.1320561477
 H         -2.7253540419        2.8853298302        0.8702124870
 H         -1.1501937916        2.4034953102        0.2043536778
 H         -6.6414857015        2.1021732884        0.7441189971
 H         -6.0437042008        0.7986918677       -0.2823841916
 H         -4.4010695318        2.1499120905        1.9037076774
 H         -5.3648809012        0.6809566803        2.1330383887
 O         -3.9254410903       -0.9264637200        1.1709121405
 C         -3.0136204499       -1.9069127700        0.8171176316
 O         -3.3882887294       -3.0674799899        1.0809087727
 O         -0.3824670705        0.2411978099       -0.4638781300
 C         -0.8460963094       -2.6560836900       -0.1169470473
 C          0.5316081604       -2.3138156989        0.3899388726
 C          0.7860221302       -2.3728152975        1.7563684927
 C          2.0199871099       -2.0070510564        2.2613069926
 C          3.0215611199       -1.5646295868        1.4152634224
 C          2.7718166201       -1.4910858183        0.0514611922
 C          1.5390368904       -1.8785907593       -0.4552780676
 H          1.3519147605       -1.7993121404       -1.5146155277
 N          3.7736452201       -1.0256037987       -0.8203550780
 S          4.5691561994        0.3960121120       -0.4383585193
 O          5.1791406394        0.8235391211       -1.6780970796
 O          5.4751751493        0.1521221135        0.6572709811
 C          3.3152752388        1.5614825320        0.0589721794
 C          2.5508763387        2.1577422507       -0.9233189313
 C          1.5719191683        3.0636585906       -0.5533466024
 C          1.3699919779        3.3502075219        0.7877970373
 C          2.1391844280        2.7355119731        1.7629968180
 C          3.1234852385        1.8316799632        1.3981041991
 H          3.7502276585        1.3423870542        2.1255834697
 H          1.9747219777        2.9570526941        2.8055459778
 H          0.6086160476        4.0589166718        1.0754175965
 H          0.9660946582        3.5373752397       -1.3092919530
 H          2.7414437890        1.9176138398       -1.9569075511
 H          3.4774060002       -1.0024815098       -1.7856862881
 H          3.9877956697       -1.2694900461        1.7909306822
 H          2.2037125798       -2.0619247553        3.3237676627
 H         -0.0025359298       -2.6996964371        2.4207759429
 H         -1.2131571991       -3.5263872996        0.4501679735
 C         -0.8580496589       -3.0570090114       -1.5850636569
 C         -2.1454531588       -3.0896881927       -2.3518696171
 C         -1.0959470292       -2.0770228126       -2.6929334979
 H         -0.5453643789       -2.2036598932       -3.6141438077
 H         -1.2686505996       -1.0463755624       -2.4263143089
 H         -2.3177922983       -3.9070609734       -3.0357782863
 H         -3.0361783390       -2.7542562026       -1.8405748376
 H         -0.1561994886       -3.8606274713       -1.7880250960
