  62
        -98.94366231
 C         -1.1361551791       -1.4556759502        0.2203902810
 C         -1.5980916396       -0.4158214698        1.0673955801
 C         -2.4804924803        0.5872413892        0.4579909994
 C         -2.7663257204        0.4940782379       -0.8531240105
 C         -3.6691591311        1.4298064167       -1.6027306712
 C         -5.1188592108        0.9253754059       -1.6029801406
 C         -5.6337504104        0.5333714967       -0.2179204602
 H         -6.6746990302        0.2240608860       -0.3336923798
 H         -5.0764846598       -0.3376628127        0.1343982805
 C         -5.5445878709        1.6506490877        0.8309162589
 H         -5.4276954515        2.6148077573        0.3349484780
 H         -6.4837936509        1.6835178876        1.3870004189
 C         -4.4252192407        1.4690507692        1.8575529989
 H         -4.4835918000        0.4660413995        2.2874601397
 H         -4.5901578010        2.1834888798        2.6683071383
 C         -2.9976609809        1.6885914496        1.3403995285
 H         -2.9318356515        2.6525115292        0.8312199077
 H         -2.3339619608        1.7124814607        2.2091775984
 H         -5.7556486713        1.7056663951       -2.0239073112
 H         -5.1799144303        0.0495967353       -2.2533868798
 H         -3.6157615516        2.4176891271       -1.1487113620
 H         -3.3121781112        1.4957704661       -2.6323266313
 O         -2.2958027099       -0.5033469125       -1.6401650597
 C         -1.4660819892       -1.5011340916       -1.1362773590
 O         -1.1283644488       -2.3409752221       -1.9892855083
 H          1.0730281105       -1.1278177200       -1.1432647696
 C          1.7047068507       -1.2743161589       -0.2802019895
 C          1.2219390313       -1.9491532483        0.8319005811
 C          2.0650848015       -2.1204436469        1.9242048711
 C          3.3615456512       -1.6382533761        1.8966208706
 C          3.8294394906       -0.9433944568        0.7956483699
 C          2.9891019404       -0.7514108782       -0.2940752601
 N          3.3986986198        0.0063275911       -1.4116822408
 S          2.4649262590        1.3630256103       -1.7405761118
 O          1.1926019391        0.9777565491       -2.2930236514
 O          3.3032014284        2.1932551901       -2.5787825026
 C          2.2555935187        2.1128563315       -0.1370393824
 C          3.2631900483        2.9168444425        0.3601975368
 C          3.1565700881        3.3999554136        1.6541772064
 C          2.0615855784        3.0547394136        2.4327928468
 C          1.0593046989        2.2465750225        1.9193388176
 C          1.1530417190        1.7746322015        0.6200959380
 H          0.3869602393        1.1462909107        0.1925956686
 H          0.2116530491        1.9539167125        2.5189508779
 H          1.9866485483        3.4159898944        3.4462192065
 H          3.9307237078        4.0337474844        2.0556985858
 H          4.0986421381        3.1564577725       -0.2777472035
 H          4.3744174897        0.2706411317       -1.3844703611
 H          4.8322335604       -0.5445179562        0.7800688195
 H          4.0076199114       -1.7854086550        2.7481580306
 H          1.6926018319       -2.6220166663        2.8049550216
 C         -0.1961175184       -2.4654871091        0.8551333417
 H         -0.5028410583       -2.5192823684        1.9125212618
 C         -0.3155539277       -3.8666114197        0.2746553729
 C          0.6980028426       -4.4519455799       -0.6573717467
 C          0.5894183731       -4.9670580787        0.7445802237
 H          0.1657946037       -5.9471492089        0.9029022646
 H          1.3805804030       -4.7091257877        1.4314496934
 H          0.3365402629       -5.0597296808       -1.4724859662
 H          1.5524727222       -3.8469203196       -0.9193027573
 H         -1.3495403775       -4.1356715905        0.0845633332
 O         -1.2817353795       -0.3317635886        2.2848606200
