  62
        -98.93695433
 C         -1.9759805396       -0.9545634767        0.3968692140
 C         -2.6492063730        0.1353244229        1.0027528869
 C         -4.0808609445        0.3112928020        0.6933888918
 C         -4.6739784886       -0.5717135066       -0.1310332548
 C         -6.0974021831       -0.5858035571       -0.6218357300
 C         -6.3600777703        0.4667269395       -1.7104188415
 C         -5.7705880253        1.8455118271       -1.4257310027
 H         -5.9371049740        2.4667936686       -2.3097334934
 H         -4.6907923243        1.7542094930       -1.2938904574
 C         -6.3689977602        2.5735573621       -0.2243709152
 H         -7.4453193827        2.6859751020       -0.3726016991
 H         -5.9309188411        3.5747687687       -0.2015369970
 C         -6.1307346156        1.9225386579        1.1400445544
 H         -6.8012529870        1.0821209734        1.2983654835
 H         -6.3800919578        2.6658660579        1.9029941435
 C         -4.6884005783        1.4991916206        1.3997177445
 H         -4.5718056163        1.2945663837        2.4710585634
 H         -4.0224816370        2.3461248707        1.1971656011
 H         -7.4385054597        0.5520652775       -1.8542020932
 H         -5.9222872921        0.1043759003       -2.6437030515
 H         -6.7816697995       -0.4591128627        0.2118159416
 H         -6.2711418028       -1.5765865399       -1.0474488626
 O         -3.9906826287       -1.6106184994       -0.6857310531
 C         -2.6454446938       -1.8338874805       -0.4538585918
 O         -2.1962581507       -2.8285963338       -1.0556091694
 O         -2.0762516504        0.9428078762        1.7850539871
 C         -0.5028208705       -1.1180281502        0.7295683819
 C          0.3774161953       -0.5482209624       -0.3573638062
 C          0.3751964012       -1.0725752928       -1.6466500787
 C          1.1902917271       -0.5314544953       -2.6233103097
 C          2.0363521741        0.5247979086       -2.3315616006
 C          2.0484790988        1.0539948009       -1.0473798027
 C          1.2150177848        0.5205909105       -0.0726526746
 H          1.2269741904        0.9519611225        0.9171011172
 N          2.9007131144        2.1252460152       -0.7154744445
 S          3.9843061196        1.9198285578        0.5443559028
 O          3.2729617002        1.7488068040        1.7842695881
 O          4.8736127105        3.0562672651        0.4605807961
 C          4.8668510416        0.4271998089        0.1239079624
 C          4.2965581547       -0.7958320968        0.4168483905
 C          4.9502038503       -1.9508169994        0.0176032218
 C          6.1562824801       -1.8645273487       -0.6607062231
 C          6.7177669786       -0.6286533492       -0.9441865951
 C          6.0656010440        0.5300421203       -0.5547128134
 H          6.4660302877        1.5115588048       -0.7509708260
 H          7.6573885743       -0.5648599846       -1.4689217071
 H          6.6610329530       -2.7666000600       -0.9686189970
 H          4.5109397609       -2.9107208472        0.2366193942
 H          3.3590572258       -0.8283530723        0.9472350780
 H          3.3809131954        2.5229163207       -1.5108321784
 H          2.6767553925        0.9421285263       -3.0939915931
 H          1.1733274073       -0.9422322238       -3.6213395913
 H         -0.2832680381       -1.8958199548       -1.8768017930
 H         -0.3467211052       -0.5110104502        1.6322498064
 C         -0.1082992496       -2.5482150565        1.0424410312
 C          1.0699234046       -2.7968730115        1.9338043538
 C         -0.3172270357       -3.0775735844        2.4277555125
 H         -0.6290846585       -4.1044674975        2.5444266850
 H         -0.7429686600       -2.4066643415        3.1600856558
 H          1.7153019404       -3.6335805161        1.7155478283
 H          1.5817752912       -1.9370314206        2.3414015480
 H         -0.2754606445       -3.2321107302        0.2209109771
