  62
        -98.93651882
 C          1.1998807946        1.7006833131        0.5000903727
 C          1.6199763884        0.9402329808       -0.6149940928
 C          2.6095155953       -0.1241366786       -0.3496151823
 C          2.9958112517       -0.3569196828        0.9173359320
 C          3.9944573688       -1.3645576521        1.4271414951
 C          5.3306573619       -1.4269525112        0.6689143694
 C          5.5185852168       -2.7199792723       -0.1255166019
 H          6.5876049854       -2.8843959834       -0.2779163698
 H          5.1430654411       -3.5534859171        0.4715254169
 C          4.8469704076       -2.7351824679       -1.4975159947
 H          4.9379304922       -3.7474129260       -1.8983918700
 H          5.3900763748       -2.0700949862       -2.1724272961
 C          3.3697130764       -2.3346218253       -1.5045622225
 H          2.9096224791       -2.7806528856       -2.3887532600
 H          2.8629200432       -2.7439885681       -0.6330259550
 C          3.1380064873       -0.8189905314       -1.5754451731
 H          4.0600611332       -0.3163338007       -1.8842270609
 H          2.4036370084       -0.5936784342       -2.3551293839
 H          5.4223741952       -0.5638177939        0.0107507335
 H          6.1359357958       -1.3598268653        1.4021941768
 H          3.5271373487       -2.3514626506        1.4411809997
 H          4.1715558856       -1.0882453805        2.4688722205
 O          2.4775486099        0.3341991693        1.9742077290
 C          1.5953304009        1.3819080990        1.7979296495
 O          1.2319325001        1.9364534907        2.8561940788
 O          1.2043733326        1.1419765758       -1.7851172740
 C          0.2661788988        2.8855930021        0.3193262784
 C         -1.0722246750        2.4076241873       -0.1872611531
 C         -1.6439136303        2.8300453499       -1.3788877004
 C         -2.8724052977        2.3319023342       -1.7809355921
 C         -3.5592029485        1.4183975679       -1.0032247876
 C         -2.9948206591        0.9893975442        0.1930793703
 C         -1.7614771476        1.4827473616        0.5895324262
 H         -1.3200857252        1.1507205923        1.5216145734
 N         -3.6923727059        0.0705069144        1.0046708830
 S         -4.0712597835       -1.4362495901        0.3880371671
 O         -4.8534698274       -1.2697659785       -0.8097200142
 O         -4.7047557836       -2.1475089293        1.4741859991
 C         -2.5137888235       -2.2141511797       -0.0038397851
 C         -1.7603654665       -1.7282484061       -1.0547451841
 C         -0.5438091458       -2.3283119245       -1.3375380098
 C         -0.1108313361       -3.4048160985       -0.5790170835
 C         -0.8760667736       -3.8776969613        0.4756446865
 C         -2.0861872877       -3.2725302272        0.7730031664
 H         -2.7148008145       -3.6055324015        1.5831942237
 H         -0.5345306494       -4.7135181041        1.0650661497
 H          0.8273080101       -3.8804100561       -0.8166092191
 H          0.0608475355       -1.9453783893       -2.1438960262
 H         -2.1246334528       -0.8973388318       -1.6369056000
 H         -3.2827652369       -0.0403871148        1.9216099994
 H         -4.5109658058        1.0165235166       -1.3097928309
 H         -3.3041277782        2.6648579707       -2.7126073647
 H         -1.1265118913        3.5428491335       -1.9988651615
 H          0.1119970432        3.3011594069        1.3256750007
 C          0.9112205955        3.9437518329       -0.5498778362
 C          0.4649436982        5.3700076595       -0.4438317460
 C          1.8043858725        4.9619636549        0.0900148913
 H          2.6903983770        5.2770795711       -0.4404497290
 H          1.9348522267        4.9072989597        1.1613031882
 H          0.4325539257        5.9696444151       -1.3407997681
 H         -0.3156384521        5.5975380652        0.2663649348
 H          1.2023528434        3.5688889708       -1.5237395088
