  62
        -98.93506190
 C         -1.7053923902       -0.0667886099        0.3144369803
 C         -2.8046515301       -0.8044131295        0.8220595510
 C         -4.1309574402       -0.1736708397        0.7219225102
 C         -4.2317662802        1.0625238597        0.2053997990
 C         -5.4651513303        1.9152299395        0.0408753480
 C         -6.7434670602        1.2252224588       -0.4532215214
 C         -6.5170601600        0.0763256878       -1.4468212602
 H         -7.1458660300        0.2370142269       -2.3245753704
 H         -5.4798294900        0.0744072176       -1.7866572201
 C         -6.8663525700       -1.2951110316       -0.8637972688
 H         -7.8026050800       -1.2106059211       -0.3078163189
 H         -7.0371375699       -1.9931092624       -1.6870061681
 C         -5.8016193000       -1.9142192306        0.0409442219
 H         -6.2197357799       -2.8240925602        0.4780480228
 H         -4.9373032199       -2.2158018211       -0.5572394877
 C         -5.2908491601       -1.0123310094        1.1764050110
 H         -4.9018724901       -1.6582721885        1.9682438817
 H         -6.0923153202       -0.4036438690        1.5875378803
 H         -7.3093542702        0.8515131797        0.3989158290
 H         -7.3561947302        1.9969906783       -0.9223108922
 H         -5.1761447103        2.6988156988       -0.6638820128
 H         -5.6694804804        2.4043580004        0.9979036475
 O         -3.1424472703        1.7570044194       -0.2279915317
 C         -1.8599274202        1.2235731695       -0.1911740210
 O         -0.9845595203        1.9956639092       -0.6238546818
 O         -2.6810269001       -1.9402082190        1.3516434021
 C         -0.3349737801       -0.7141073297        0.3947384110
 C          0.6834243098        0.2569210409        0.9333952101
 C          0.5358912397        0.7282682322        2.2360656796
 C          1.4408630195        1.6232968728        2.7709104488
 C          2.5296330896        2.0477379222        2.0285217384
 C          2.6863092997        1.5830403909        0.7293267489
 C          1.7651581098        0.6957830902        0.1879594797
 H          1.8865669599        0.3904671892       -0.8370913300
 N          3.7812495797        1.9840906402       -0.0482867515
 S          4.4908598899        0.9015091692       -1.0998532503
 O          5.8575490698        1.3633227791       -1.2251269207
 O          3.7474249199        0.8171039178       -2.3314320903
 C          4.4537889699       -0.6724355100       -0.2571517987
 C          4.9832630299       -0.7539677886        1.0156726814
 C          4.9449839599       -1.9681188980        1.6814587726
 C          4.3848558501       -3.0768301086        1.0655549837
 C          3.8673974101       -2.9821519400       -0.2167164064
 C          3.8998172001       -1.7686652707       -0.8855619576
 H          3.5019142801       -1.6484891017       -1.8807703678
 H          3.4346452902       -3.8462213105       -0.6957061155
 H          4.3518382901       -4.0205838481        1.5865974647
 H          5.3491887899       -2.0460176469        2.6777886428
 H          5.4189407098        0.1226415418        1.4663513405
 H          4.4582138696        2.5647638207        0.4231074380
 H          3.2418243295        2.7436870927        2.4449510777
 H          1.3061332894        1.9880125839        3.7780383984
 H         -0.3108322404        0.3917764627        2.8188045799
 H         -0.4605798301       -1.5181106090        1.1394856918
 C          0.1137270500       -1.3868005710       -0.8935480283
 C         -0.8773615998       -1.9478114221       -1.8673098177
 C         -0.0621947499       -0.7464122624       -2.2365127989
 H          0.7271333801       -0.8560727931       -2.9667576488
 H         -0.5466200700        0.2171613675       -2.2716075699
 H         -0.6540194697       -2.8904284026       -2.3437066168
 H         -1.9265919199       -1.8038712220       -1.6536269480
 H          1.0228807701       -1.9624677108       -0.7475597376
