  62
        -98.94581552
 C         -1.8051287593       -1.3695134804       -0.2546831809
 C         -3.0832539493       -1.2232051912        0.3384817992
 C         -3.8874587799       -0.0953462614       -0.1438652003
 C         -3.3863116604        0.7287305092       -1.0820889600
 C         -4.0858359610        1.9206940291       -1.6772912595
 C         -3.9814572115        3.1966220888       -0.8302040990
 C         -4.8276677214        3.2053193579        0.4435231111
 H         -4.8358681319        4.2317728277        0.8154857114
 H         -5.8567634713        2.9412761775        0.1976827810
 C         -4.3082649409        2.2826830477        1.5550851207
 H         -4.3202062111        2.8172600574        2.5075818709
 H         -3.2688495908        2.0149292583        1.3514811105
 C         -5.1200599102        1.0015702773        1.7451758102
 H         -6.1285522103        1.2519600566        2.0821114004
 H         -4.6429759299        0.4052845572        2.5271015700
 C         -5.2285701499        0.1319045877        0.4861393099
 H         -5.6280787694       -0.8429238426        0.7769547896
 H         -5.9118526102        0.5893458776       -0.2292029298
 H         -4.3025132720        4.0304968989       -1.4586889587
 H         -2.9334253316        3.3595602292       -0.5698870591
 H         -5.1359806509        1.6813094186       -1.8477132495
 H         -3.6124309712        2.1088757097       -2.6433341195
 O         -2.1549973903        0.5518442700       -1.6296255202
 C         -1.3350911098       -0.4975354098       -1.2367533607
 O         -0.2437342398       -0.5396373690       -1.8348801708
 O         -3.5297230788       -1.9994848318        1.2241833790
 C         -0.9098220687       -2.5018228701        0.2203680886
 C          0.3383411311       -1.8890798997        0.8027361887
 C          0.2529924509       -1.2038741802        2.0125674689
 C          1.3529509406       -0.5513760699        2.5356156291
 C          2.5586837405       -0.5498670490        1.8543992990
 C          2.6493605007       -1.2222814385        0.6437011587
 C          1.5508670410       -1.9030114189        0.1342709286
 H          1.6408844612       -2.4152810085       -0.8101627916
 N          3.8537360107       -1.1951590477       -0.0787152014
 S          4.6856431000        0.2512744628       -0.1655321909
 O          5.4063924599        0.1989052536       -1.4191443610
 O          5.5056438400        0.4025158627        1.0124872391
 C          3.4707897493        1.5617606922       -0.2050369903
 C          2.3522952193        1.4417597920       -1.0051610902
 C          1.4374502788        2.4823934015       -1.0356257198
 C          1.6577028583        3.6242657013       -0.2819418894
 C          2.7897714283        3.7325706916        0.5112651906
 C          3.7033035688        2.6921657120        0.5537852101
 H          4.5900149889        2.7293901122        1.1658605100
 H          2.9604956679        4.6210745915        1.0976149509
 H          0.9432085479        4.4319176210       -0.3127107290
 H          0.5531381388        2.3772284813       -1.6448589597
 H          2.1694531297        0.5490195521       -1.5814769806
 H          3.7935057008       -1.6323204273       -0.9868322915
 H          3.4247711503       -0.0366119987        2.2404221191
 H          1.2718126504       -0.0288337803        3.4765436293
 H         -0.6953659991       -1.1809684609        2.5315708890
 H         -1.4663051384       -2.9978249807        1.0271285684
 C         -0.6551230483       -3.5039850696       -0.8852194218
 C         -0.1314525176       -4.8664598094       -0.5449593524
 C         -1.5473149477       -4.7011234900       -1.0068882322
 H         -1.8121507676       -5.0472242397       -1.9948278923
 H         -2.3399221576       -4.8081884906       -0.2810880422
 H          0.5765935526       -5.3308836188       -1.2145436526
 H          0.0400671126       -5.0870819297        0.4976716975
 H         -0.3194049386       -3.0447027791       -1.8079710817
