  62
        -98.93877133
 C         -1.8524988941       -0.6889126488        0.3182219613
 C         -2.1914513819        0.5714957603       -0.2393965051
 C         -3.5737590068        0.7333654118       -0.7060024043
 C         -4.4244800411       -0.3032753481       -0.6004762851
 C         -5.8743263039       -0.2671689950       -0.9866158858
 C         -6.7559226026        0.1484983443        0.1993238488
 C         -6.2675459640        1.4041159596        0.9216479476
 H         -6.9820790582        1.6191890771        1.7191879200
 H         -5.3083703457        1.1900819107        1.3986188872
 C         -6.1198434831        2.6379128206        0.0203100448
 H         -6.6816865515        2.4915877703       -0.9028853947
 H         -6.5551487517        3.4992318387        0.5314178859
 C         -4.6740222485        3.0045652245       -0.3194399956
 H         -4.0845591436        3.0598880619        0.5991020152
 H         -4.6728526060        4.0007839649       -0.7696549632
 C         -3.9583821351        2.0615430077       -1.2947972725
 H         -4.5708357579        1.9230221956       -2.1882049041
 H         -3.0200663754        2.5392104713       -1.5912629250
 H         -7.7722139449        0.3083383660       -0.1655286782
 H         -6.7785029995       -0.6734611313        0.9186626590
 H         -6.0068395393        0.4288010173       -1.8127776297
 H         -6.1681899698       -1.2659776897       -1.3137228227
 O         -4.0628059052       -1.5020258711       -0.0814371365
 C         -2.7735240239       -1.7351617315        0.3900225995
 O         -2.6079827161       -2.8876295920        0.8270271909
 O         -1.3692084882        1.5221060123       -0.3346937772
 C         -0.4237725470       -0.8407603986        0.8056205769
 C          0.4879138847       -1.3459091778       -0.2831097855
 C          0.1239861229       -2.3977511754       -1.1170052064
 C          0.9952206442       -2.8494890007       -2.0916689572
 C          2.2495082446       -2.2824327092       -2.2359763819
 C          2.6238565936       -1.2329719832       -1.4057362178
 C          1.7335543729       -0.7604663636       -0.4519103543
 H          2.0184826123        0.0731662681        0.1705116584
 N          3.8852105968       -0.6325023441       -1.5157423177
 S          4.7082439033       -0.1996282861       -0.1206208326
 O          6.1002537651       -0.1718287273       -0.5140723116
 O          4.3717648795       -1.0721563258        0.9791788124
 C          4.1683571778        1.4620766526        0.2165600560
 C          3.6389818302        1.7735769801        1.4531496134
 C          3.2328363944        3.0754665163        1.6997164371
 C          3.3648704291        4.0380165535        0.7109774195
 C          3.9031084376        3.7099323683       -0.5242728408
 C          4.3104390091        2.4101689679       -0.7770991931
 H          4.7353384269        2.1173508774       -1.7226761273
 H          4.0029285038        4.4622535832       -1.2900197860
 H          3.0447447156        5.0495670944        0.9050253737
 H          2.8123626868        3.3313744115        2.6591303535
 H          3.5480120126        0.9935013744        2.1931804899
 H          4.4979041969       -1.0485450261       -2.2018695668
 H          2.9330820427       -2.6485530591       -2.9869386628
 H          0.7001737033       -3.6636679043       -2.7366235444
 H         -0.8421856356       -2.8624991046       -0.9880536408
 H         -0.0995849564        0.1851722923        1.0449107357
 C         -0.2948668022       -1.6588233152        2.0827665008
 C          0.2269589472       -3.0601352730        2.1189330257
 C          1.0550624015       -1.9424581032        2.6743843975
 H          1.1709338155       -1.8710207031        3.7456875361
 H          1.9328122387       -1.6464472028        2.1172727691
 H         -0.2449926710       -3.7534910096        2.7981129293
 H          0.5381313440       -3.5112912849        1.1898846087
 H         -1.0906472538       -1.4305496474        2.7853247545
