  62
        -98.93361089
 C         -1.3781025493       -1.9388565008        0.2408509391
 C         -1.9201913600       -0.9962040008        1.1525145688
 C         -2.9762293003       -0.1087539715        0.6414045884
 C         -3.3786752701       -0.2432594620       -0.6346802016
 C         -4.3932215004        0.6199383974       -1.3295166220
 C         -3.7624391210        1.9718777276       -1.7205981122
 C         -4.3565972617        3.1780980475       -0.9923907125
 H         -3.6981812821        4.0291469078       -1.1799978126
 H         -5.3295125117        3.4117415969       -1.4298564327
 C         -4.5468612619        3.0165437777        0.5188841075
 H         -4.7204385624        4.0150078977        0.9253842472
 H         -5.4513161316        2.4390289073        0.7154953875
 C         -3.3746657617        2.3735426685        1.2712073078
 H         -3.2509345021        2.8996845387        2.2197974077
 H         -2.4493242616        2.5067566888        0.7099403979
 C         -3.5684809510        0.8819576384        1.6059055781
 H         -3.0804770910        0.6678905489        2.5616716082
 H         -4.6344873809        0.6734256879        1.7317601880
 H         -2.6882044210        1.9212442382       -1.5273735420
 H         -3.8769822709        2.1304467873       -2.7941992622
 H         -4.7203885300        0.0827240870       -2.2201674719
 H         -5.2524233506        0.7724104871       -0.6800365421
 O         -2.8378586295       -1.1559852119       -1.4804017913
 C         -1.8113358491       -2.0099621713       -1.0833948510
 O         -1.4013684986       -2.7454903813       -1.9998007807
 H          0.6260500206       -1.4021723801       -1.3526806307
 C          1.3425404305       -1.3931982096       -0.5427701706
 C          1.0673990407       -2.0991503895        0.6193407095
 C          2.0048160605       -2.0776551588        1.6449143797
 C          3.1893792502       -1.3741836482        1.5039964997
 C          3.4481491300       -0.6520145083        0.3529274596
 C          2.5082659502       -0.6536734090       -0.6699395506
 N          2.7137037599        0.1617934208       -1.7992153207
 S          2.9815297691        1.7880283510       -1.4594341110
 O          2.2573262189        2.5217582704       -2.4749656513
 O          4.4028509789        2.0281262617       -1.4133369608
 C          2.2865403887        2.0768623510        0.1615317888
 C          0.9687745588        1.7383170204        0.4023053187
 C          0.4610488385        1.8900030305        1.6820451585
 C          1.2670869181        2.3993435511        2.6887567186
 C          2.5789903779        2.7600558317        2.4262522687
 C          3.0991077982        2.5870643717        1.1536760288
 H          4.1210585182        2.8276451221        0.9096967989
 H          3.2013358976        3.1599807322        3.2103808487
 H          0.8644958379        2.5073917811        3.6832665585
 H         -0.5495676714        1.5820047000        1.8965524984
 H          0.3572188091        1.3468077700       -0.3968479914
 H          1.9811331101        0.0700938803       -2.4893097908
 H          4.3497051497       -0.0723517279        0.2341695596
 H          3.9103564800       -1.3715489977        2.3064693298
 H          1.7919304106       -2.5994033387        2.5657976098
 C         -0.2530207390       -2.8140688301        0.7680907395
 H         -0.4489932891       -2.9135213700        1.8472953895
 C         -0.2351524982       -4.2146447702        0.1753572798
 C          0.7800502222       -4.6652746399       -0.8274105500
 C          0.8330708022       -5.1892510196        0.5744315102
 H          0.5527818127       -6.2159095097        0.7543618003
 H          1.6273710119       -4.8282925491        1.2096921802
 H          0.4456701226       -5.3166933903       -1.6201813699
 H          1.5355509019       -3.9607789296       -1.1393094800
 H         -1.2367283480       -4.6138801907        0.0531249897
 O         -1.5347063402       -0.9031697204        2.3475128288
