  62
        -98.93775195
 C         -1.9735885491       -0.9296131836        0.0070691059
 C         -2.3086282488        0.0249277196        0.9922429772
 C         -2.6182461383        1.3834378648        0.5179541594
 C         -2.5464719807        1.6550391205       -0.7986573683
 C         -2.7437069564        2.9519334635       -1.5558335201
 C         -3.4684385381        4.1319460142       -0.9123896321
 C         -4.9459997287        3.8909276114       -0.6074121609
 H         -5.4866955086        3.7987928126       -1.5525085259
 H         -5.3320941519        4.7697322191       -0.0863424890
 C         -5.2525869410        2.6474890129        0.2235940483
 H         -4.9861059731        1.7524678383       -0.3422983641
 H         -6.3327554996        2.6141672910        0.3892334831
 C         -4.5713665792        2.5895424256        1.5899286131
 H         -5.0111041794        1.7535828444        2.1402709330
 H         -4.7828111733        3.5045842465        2.1462615482
 C         -3.0471419290        2.3712297424        1.5641642785
 H         -2.7480833752        1.9463970545        2.5271234993
 H         -2.5102976850        3.3098680278        1.4447553446
 H         -3.4087361746        4.9576624421       -1.6267192234
 H         -2.9441990907        4.4522864947       -0.0168197922
 H         -3.2582252390        2.6775068212       -2.4821771364
 H         -1.7381034526        3.2785864800       -1.8445801425
 O         -2.1982592827        0.7030552378       -1.7132511462
 C         -1.9029884327       -0.5981882042       -1.3442163328
 O         -1.6073300370       -1.3474430379       -2.2950351248
 O         -2.3432970552       -0.2443655052        2.2256403159
 C         -1.6284833646       -2.3430089519        0.4307013311
 C         -0.2318997529       -2.7145145889       -0.0068343213
 C          0.1168909152       -4.0062503190       -0.3819157521
 C          1.4184485945       -4.3017699684       -0.7486713659
 C          2.3948496530       -3.3238442219       -0.7506060660
 C          2.0551217651       -2.0256660814       -0.3821294346
 C          0.7555462486       -1.7377877950       -0.0003172091
 H          0.5070527649       -0.7286765459        0.2965822823
 N          3.0145316178       -1.0021038966       -0.4287742922
 S          2.7973642625        0.4289209127        0.4250740610
 O          2.5440277262        0.1541126604        1.8228998984
 O          1.8205391530        1.2416461560       -0.2577323600
 C          4.4195109384        1.1424730157        0.2283643431
 C          5.3324930146        1.0588441158        1.2624236897
 C          6.5998090526        1.5912297668        1.0828714114
 C          6.9316448371        2.1922626360       -0.1218927643
 C          6.0043260089        2.2694974718       -1.1507108650
 C          4.7354391571        1.7401755052       -0.9772821828
 H          3.9788621274        1.7829376607       -1.7436845830
 H          6.2646447814        2.7393291791       -2.0854191915
 H          7.9182936804        2.6053588289       -0.2596866749
 H          7.3214878355        1.5352059453        1.8817273850
 H          5.0259973984        0.5888940512        2.1830276085
 H          3.9674986191       -1.3352057127       -0.3952239819
 H          3.4072548558       -3.5542164967       -1.0442975029
 H          1.6755143848       -5.3095798758       -1.0374838383
 H         -0.6320046148       -4.7812803429       -0.3883727104
 H         -1.6463258783       -2.3310629986        1.5320660549
 C         -2.6843159356       -3.3125228373       -0.0630597231
 C         -3.0608888345       -4.5123718151        0.7524738488
 C         -4.0069659846       -3.3562486823        0.6401110453
 H         -4.9024745103       -3.4732510641        0.0485677685
 H         -4.1306236229       -2.7092553695        1.4965457342
 H         -3.3109003459       -5.4276237388        0.2373147526
 H         -2.5522486046       -4.6572869299        1.6936953434
 H         -2.6879105378       -3.4018664864       -1.1437719370
