  62
        -98.94241936
 C         -0.7502915991       -1.3592767594       -0.3245840004
 C         -1.5842587389       -1.1428343003        0.8033513299
 C         -2.6081184093       -0.1001690406        0.6737091506
 C         -2.6808819098        0.6031025799       -0.4703807691
 C         -3.7525046203        1.6032601097       -0.7925511184
 C         -4.9478093302        0.9277109796       -1.4807860184
 C         -5.4605782995       -0.3168854510       -0.7562316889
 H         -6.3232392795       -0.6860466510       -1.3152780289
 H         -4.6948714393       -1.0949200207       -0.7981393095
 C         -5.8613661293       -0.0801096018        0.7065488513
 H         -6.0044133897        0.9863292080        0.8836795918
 H         -6.8195234591       -0.5703448623        0.8913650412
 C         -4.8699631889       -0.6363673019        1.7299946208
 H         -4.6590052486       -1.6843860918        1.5031696803
 H         -5.3433188787       -0.6040586126        2.7148928609
 C         -3.5350419992        0.1114704385        1.8372986309
 H         -3.7231124196        1.1754350984        1.9903469314
 H         -3.0079424689       -0.2774271117        2.7130057106
 H         -5.7544053205        1.6583652193       -1.5654899979
 H         -4.6469094303        0.6361557802       -2.4898920186
 H         -4.0798686703        2.0892783491        0.1239133519
 H         -3.3387324207        2.3519069702       -1.4685307781
 O         -1.8111310500        0.4306829408       -1.4960209693
 C         -0.8208673996       -0.5480500789       -1.4576979600
 O         -0.1129910998       -0.5755056181       -2.4802803801
 H          1.7682569405       -0.3129476783       -0.6473506704
 C          2.1262037209       -0.8929838186        0.1904884693
 C          1.4706568314       -2.0641555090        0.5460689988
 C          1.9541885819       -2.8087377893        1.6153136484
 C          3.0705337419       -2.3890305192        2.3161151184
 C          3.7164012513       -1.2172095988        1.9686274788
 C          3.2405404708       -0.4651530885        0.8984801292
 N          3.8835638703        0.7232140819        0.5396653797
 S          3.2167150097        1.8712763022       -0.4545202896
 O          3.1838234196        1.4001376828       -1.8155400299
 O          4.0361534593        3.0436954524       -0.2220167092
 C          1.5648027997        2.2193492513        0.1244813809
 C          1.2071683900        2.0160225305        1.4419771108
 C         -0.0644874900        2.3819165398        1.8540931813
 C         -0.9430155304        2.9650497299        0.9556946717
 C         -0.5654396708        3.1721573307       -0.3613827683
 C          0.6955838193        2.7876894314       -0.7844398987
 H          1.0204382190        2.9083751920       -1.8058691987
 H         -1.2459263611        3.6287812608       -1.0617218479
 H         -1.9258101305        3.2626462694        1.2840966921
 H         -0.3639474898        2.2118674192        2.8757028512
 H          1.9046270103        1.5703716604        2.1322703005
 H          4.5551627803        1.0928488919        1.1941773997
 H          4.5818844313       -0.8803628087        2.5177914088
 H          3.4363597323       -2.9737988395        3.1460165180
 H          1.4379199923       -3.7114692496        1.9056846781
 C          0.2402114414       -2.5046783291       -0.2033058811
 H         -0.2689287282       -3.2505623796        0.4295878986
 C          0.5643351914       -3.1881491083       -1.5226098815
 C          1.8564086512       -3.0084575975       -2.2550935617
 C          1.5665403218       -4.3042733979       -1.5623065722
 H          1.3488540120       -5.1747308077       -2.1623739526
 H          2.1121575321       -4.5153712882       -0.6549644325
 H          1.8156167909       -2.9685135570       -3.3330206717
 H          2.6003402710       -2.3504569874       -1.8334017315
 H         -0.3191533187       -3.3063814184       -2.1420414914
 O         -1.4883950484       -1.8171781607        1.8632382496
