  62
        -98.94843811
 C         -1.2953602114       -1.5672253723        0.1925171572
 C         -1.6806980798       -0.6411878999        1.1909755193
 C         -2.9191869857        0.1007217585        0.9360440795
 C         -3.5961425055       -0.1069570068       -0.2080891069
 C         -4.8971085034        0.5412132112       -0.5974428526
 C         -4.7404979043        1.9280584367       -1.2349222144
 C         -4.3540483576        3.0472813551       -0.2674835616
 H         -4.4996581207        3.9918376847       -0.7954749202
 H         -5.0343224532        3.0418847936        0.5850617518
 C         -2.9033335328        2.9828491465        0.2290884993
 H         -2.3088929192        2.3446504613       -0.4294499073
 H         -2.4518240746        3.9765455957        0.1758276107
 C         -2.7392838928        2.4937165373        1.6678446415
 H         -3.1830339452        3.2183893006        2.3549839986
 H         -1.6675391160        2.4415363774        1.8776492450
 C         -3.3545037347        1.1165517579        1.9485922847
 H         -3.0060975447        0.7802532365        2.9285181818
 H         -4.4418501290        1.1904593202        1.9701679765
 H         -3.9952891332        1.8654466936       -2.0315934475
 H         -5.6980538286        2.1866970484       -1.6931945382
 H         -5.3668469021       -0.1218834586       -1.3272610089
 H         -5.5461236548        0.6127397794        0.2759945155
 O         -3.1729619144       -0.9784466168       -1.1618482157
 C         -2.0031064563       -1.7082352620       -1.0006303103
 O         -1.7164712422       -2.4364692835       -1.9701439130
 H          0.4521271914        0.0853801929       -0.5069211083
 C          1.1443344364       -0.6240960567       -0.9323516405
 C          1.0246135327       -1.9701744324       -0.6173019234
 C          1.9062205942       -2.8673734498       -1.2074393248
 C          2.8693950765       -2.4184163691       -2.0948139457
 C          2.9960509619       -1.0729791147       -2.3900944726
 C          2.1218398705       -0.1670426855       -1.8005481157
 N          2.2099638341        1.2095415098       -2.0565651630
 S          1.8960813276        2.2875229471       -0.8147004321
 O          0.4793616603        2.3768014072       -0.5722518380
 O          2.5408877780        3.5129245022       -1.2385849231
 C          2.7595239594        1.6131705517        0.5937330121
 C          2.0780132347        1.0291281050        1.6412188611
 C          2.8048748543        0.4677770237        2.6803309074
 C          4.1897753027        0.4995104250        2.6566730441
 C          4.8604700474        1.0990783476        1.6009180153
 C          4.1407373748        1.6581902337        0.5588001904
 H          4.6239928838        2.1430788281       -0.2739454453
 H          5.9379847601        1.1284417161        1.5863683597
 H          4.7481025411        0.0568887364        3.4664382643
 H          2.2735792104        0.0042459239        3.4964545664
 H          0.9992120949        1.0056745735        1.6431873061
 H          3.0035715513        1.4921587799       -2.6121540713
 H          3.7541578547       -0.7257084440       -3.0750370638
 H          3.5404251650       -3.1270030715       -2.5558920909
 H          1.8340993816       -3.9180411546       -0.9791623770
 C         -0.0254452849       -2.3726850932        0.3898009794
 H          0.3473249669       -2.0845453095        1.3853587752
 C         -0.3222618546       -3.8576665086        0.3941968003
 C          0.4970977900       -4.7912150625        1.2330765887
 C         -0.9125164241       -4.4717600245        1.6273201733
 H         -1.6695176868       -5.2328875565        1.5125200406
 H         -1.0735449197       -3.8222359241        2.4754841151
 H          0.7078564832       -5.7780269202        0.8493213068
 H          1.2948143537       -4.3652532141        1.8224949870
 H         -0.6863114926       -4.2112355223       -0.5636478896
 O         -1.0223879593       -0.4507910054        2.2497466403
