  62
        -98.93967646
 C          2.0638232105        1.3797399000        0.6387347096
 C          1.9754779504        0.1041852399        1.2546942893
 C          3.0440370904       -0.8506278500        0.9399845393
 C          4.0394936305       -0.4696962299        0.1191931695
 C          5.1607978305       -1.3560674899       -0.3382926406
 C          4.8035457206       -2.0640885197       -1.6529425707
 C          3.4291876806       -2.7339072196       -1.6405568610
 H          2.6580830706       -1.9635256996       -1.5653112509
 H          3.2997562007       -3.2250243495       -2.6074955510
 C          3.2327459605       -3.7592413298       -0.5150773011
 H          2.7613153905       -4.6510250097       -0.9333036113
 H          4.2022127205       -4.0629120199       -0.1183357211
 C          2.3423156704       -3.2787010900        0.6325653189
 H          2.0926983203       -4.1436160101        1.2526862487
 H          1.4090732104       -2.8769812799        0.2303774488
 C          2.9569489603       -2.2186363201        1.5549449491
 H          2.3021790602       -2.1145207903        2.4248941490
 H          3.9381469003       -2.5508542802        1.8999920791
 H          5.5727084107       -2.8094422896       -1.8637749807
 H          4.8170486907       -1.3255389195       -2.4579397306
 H          5.3766794004       -2.0898194900        0.4358366593
 H          6.0462659905       -0.7382878499       -0.4974644504
 O          4.1048766006        0.7654884402       -0.4353474903
 C          3.1076152506        1.7136449601       -0.2247791003
 O          3.2900050406        2.7730416802       -0.8505148401
 O          1.0391930903       -0.2150478802        2.0357149392
 C          0.9200454405        2.3344573500        0.9323097596
 C         -0.2292379295        2.0190743002        0.0088603694
 C         -0.0422236893        1.9501177904       -1.3683662606
 C         -1.0954360792        1.6227425505       -2.2025401907
 C         -2.3495213693        1.3493052405       -1.6835187709
 C         -2.5428830094        1.4011568703       -0.3095772009
 C         -1.4850246895        1.7401838001        0.5256378392
 H         -1.6368616196        1.7682430499        1.5959052792
 N         -3.8116711495        1.1237902102        0.2305911789
 S         -4.5887546595       -0.2957249297       -0.1994912014
 O         -4.9578230193       -0.2326778295       -1.5906484714
 O         -5.6728920996       -0.4270852399        0.7460709585
 C         -3.3887707695       -1.5879722998        0.0608582485
 C         -2.5764598794       -1.9870893596       -0.9811051614
 C         -1.6219778395       -2.9640737997       -0.7470683615
 C         -1.4966228896       -3.5209030899        0.5160812184
 C         -2.3178380097       -3.1061494100        1.5529444684
 C         -3.2708909897       -2.1272074000        1.3265226685
 H         -3.9358948297       -1.7852155301        2.1033623784
 H         -2.2145493098       -3.5391591602        2.5348390583
 H         -0.7548452596       -4.2834330299        0.6939772584
 H         -0.9790991994       -3.2872741496       -1.5504989815
 H         -2.7091868393       -1.5389609895       -1.9520452414
 H         -3.8568957996        1.2466328900        1.2321087089
 H         -3.1778431592        1.0887051306       -2.3221549710
 H         -0.9394268791        1.5786245807       -3.2700399907
 H          0.9382927007        2.1542141004       -1.7736926704
 H          0.5961140603        2.0805096098        1.9545014795
 C          1.3101337005        3.8035415300        0.9365156799
 C          0.8732188106        4.7814319202       -0.1081947800
 C          0.2800894905        4.8439270400        1.2654274399
 H          0.5559964704        5.6603556799        1.9153900501
 H         -0.7412492196        4.5122471600        1.3804848698
 H          1.5807331606        5.5394054302       -0.4074277898
 H          0.2508210407        4.4276561103       -0.9149099902
 H          2.3025813304        3.9569411299        1.3466993100
