  62
        -98.94459555
 C         -2.7127741405       -1.1999801697        0.1311442892
 C         -2.4575490904       -0.2555791496       -0.8935594006
 C         -3.2506896103        0.9789497605       -0.8331091004
 C         -4.1977148903        1.1250608504        0.1107738397
 C         -5.1043560201        2.3132405005        0.2817332099
 C         -4.4838554100        3.4554704502        1.0976960501
 C         -3.3843890999        4.2419234003        0.3826250803
 H         -3.7489413199        4.5733782305       -0.5901301196
 H         -3.1887957398        5.1351367801        0.9790679305
 C         -2.0680693700        3.4716026702        0.2043123701
 H         -2.0496545801        2.6124670501        0.8793651099
 H         -1.2267066800        4.1097916401        0.4837783602
 C         -1.8047790001        2.9833690305       -1.2204997300
 H         -0.8630176702        2.4257468104       -1.2197582501
 H         -1.6822314900        3.8423346006       -1.8846301298
 C         -2.9048070502        2.0776246007       -1.7916552402
 H         -3.7884236802        2.6677974208       -2.0341653700
 H         -2.5276285203        1.6165571708       -2.7078572603
 H         -5.2887208599        4.1482941803        1.3533032003
 H         -4.0890118600        3.0444798100        2.0295612001
 H         -5.4083988401        2.6862416807       -0.6964473900
 H         -5.9904514902        1.9548261805        0.8098840599
 O         -4.4575284703        0.1649395403        1.0374097095
 C         -3.6921853604       -0.9868114198        1.1044325592
 O         -3.9849941105       -1.7414274700        2.0530650291
 O         -1.6202721804       -0.4219246394       -1.8195479707
 C         -1.8726401906       -2.4612119398        0.2694031289
 C         -0.4794630606       -2.0059042800        0.6286679690
 C         -0.1919299205       -1.6756376003        1.9503604490
 C          1.0348585096       -1.1392957505        2.2931521991
 C          1.9934017496       -0.9013267804        1.3227415791
 C          1.7110963295       -1.2173413001        0.0015490991
 C          0.4928949094       -1.7917859800       -0.3352632410
 H          0.2863854294       -2.0223715697       -1.3681200910
 N          2.6674836695       -0.9434523100       -0.9953175809
 S          3.2253385197        0.6422168399       -1.0772131606
 O          2.2630956198        1.5802582199       -0.5478373604
 O          3.6291445497        0.8353225402       -2.4534703605
 C          4.6827409297        0.6195731296       -0.0523741506
 C          4.8072805998        1.5169440094        0.9898547096
 C          5.9542904798        1.4858339691        1.7680228795
 C          6.9511141997        0.5629022491        1.4912951293
 C          6.8117331196       -0.3304303507        0.4393901292
 C          5.6686372596       -0.3030900305       -0.3432511508
 H          5.5224280095       -0.9756685603       -1.1717397709
 H          7.5890762695       -1.0467398908        0.2275216390
 H          7.8418586797        0.5400656688        2.0990187493
 H          6.0641467499        2.1800594589        2.5856683997
 H          4.0029298099        2.2122452694        1.1710106197
 H          2.3706828695       -1.2444242098       -1.9135465509
 H          2.9435285696       -0.4604093406        1.5774551492
 H          1.2439584396       -0.8920503108        3.3229558892
 H         -0.9549414305       -1.8258874504        2.7019983190
 H         -2.2890836306       -3.0124643300        1.1224217388
 C         -1.9447077607       -3.3386316396       -0.9618615113
 C         -1.4558630509       -4.7529115297       -0.8815898516
 C         -2.9234442708       -4.4721341095       -0.9940308715
 H         -3.4225138609       -4.6938945293       -1.9254665515
 H         -3.5425097008       -4.6218387796       -0.1215486115
 H         -0.9459970809       -5.1724166695       -1.7353507616
 H         -1.0766220509       -5.0940609499        0.0697567184
 H         -1.7884501407       -2.7976576094       -1.8867078112
