  62
        -98.94691193
 C         -0.5170465532       -1.7864566163       -0.6727533428
 C         -1.6576435106       -2.0531222966        0.1271336449
 C         -2.8233045128       -1.1855784198       -0.0768911630
 C         -2.7584624624       -0.2083924899       -0.9984080027
 C         -3.8716289206        0.7481260497       -1.3165053699
 C         -3.7770289905        2.0380201396       -0.4908309464
 C         -3.5380207765        1.8051386331        1.0011487258
 H         -2.5473068485        1.3660123347        1.1500822376
 H         -3.5183703331        2.7859301416        1.4834811284
 C         -4.5985351105        0.9271486039        1.6807455721
 H         -4.8647427952        1.3837831676        2.6365101385
 H         -5.5026480599        0.9002669821        1.0705468566
 C         -4.1484663149       -0.5034257968        1.9837320540
 H         -4.8711116627       -0.9470711288        2.6742715464
 H         -3.1803403727       -0.4790167820        2.4918046858
 C         -4.0350062468       -1.4393105162        0.7734336819
 H         -3.9290825523       -2.4610839395        1.1498150206
 H         -4.9488658312       -1.3848563492        0.1778811559
 H         -2.9540975168        2.6435057709       -0.8776916133
 H         -4.7018025125        2.6027105741       -0.6267743148
 H         -3.8117029128        1.0011665941       -2.3766091479
 H         -4.8235445369        0.2558557516       -1.1255357916
 O         -1.6500035548        0.0269624913       -1.7407392983
 C         -0.4903436034       -0.7214782522       -1.5739045877
 O          0.4527567175       -0.3305911187       -2.2882037804
 H          1.3688352974       -0.0669510049       -0.0530867233
 C          1.7875602837       -0.7043551043        0.7088491035
 C          1.5648991391       -2.0715758109        0.6636425124
 C          2.1391861322       -2.8721184750        1.6444311659
 C          2.9007945345       -2.3100670280        2.6533947222
 C          3.0743859472       -0.9391045709        2.7248378546
 C          2.5036483039       -0.1318266400        1.7484833518
 N          2.6233155326        1.2655198534        1.7851695156
 S          1.2902494766        2.1853957283        1.3467415870
 O          1.4844522664        3.4476503063        2.0337172224
 O          0.0504564761        1.5020899407        1.6369013512
 C          1.4661729509        2.4673888950       -0.3996043219
 C          0.3223594814        2.6504708883       -1.1481213846
 C          0.4391985426        2.9169025611       -2.5017749943
 C          1.6956161278        2.9986801819       -3.0792698292
 C          2.8361000289        2.8173074397       -2.3126583696
 C          2.7254423646        2.5518551897       -0.9576032924
 H          3.5904056062        2.3950508977       -0.3346081181
 H          3.8115928980        2.8747613505       -2.7686101304
 H          1.7847019981        3.1967352425       -4.1358601979
 H         -0.4490601818        3.0434141526       -3.0999004230
 H         -0.6351732863        2.5560749720       -0.6597945606
 H          3.0834155427        1.6373264522        2.6036735403
 H          3.6369160349       -0.4954251192        3.5321558733
 H          3.3422481050       -2.9423719007        3.4086282800
 H          1.9693792516       -3.9381464733        1.6251898292
 C          0.6967067525       -2.6640137474       -0.4227683189
 H          0.2974798007       -3.6147445255       -0.0415869907
 C          1.5260416088       -2.9528180200       -1.6584725242
 C          2.3270546657       -4.2169576262       -1.7286184241
 C          1.1079565876       -4.0535043286       -2.5848404504
 H          1.2326314091       -3.9051584167       -3.6466139316
 H          0.2226244384       -4.6153032896       -2.3242812378
 H          3.2960330637       -4.1839175904       -2.2020421233
 H          2.2686210870       -4.8984965044       -0.8938571788
 H          1.9480228197       -2.0620724617       -2.1048566205
 O         -1.7010111676       -2.9938504278        0.9670519934
