  62
        -98.94951991
 C          1.5818334524        0.8926222277       -0.7039632544
 C          1.4048128587        1.6791348087        0.4594983970
 C          0.3580374652        2.7091749880        0.3832622046
 C         -0.3806400620        2.8184246961       -0.7353400422
 C         -1.4743698765        3.8246740515       -0.9508848805
 C         -2.8508660607        3.2885024885       -0.5367639303
 C         -2.8848349519        2.6606582675        0.8568024956
 H         -2.2964314638        1.7401053033        0.8670105093
 H         -3.9197274833        2.3728868885        1.0590836546
 C         -2.3800165048        3.5739505062        1.9818951631
 H         -3.0613724566        3.4871001457        2.8309589164
 H         -2.3958594228        4.6153597341        1.6565344198
 C         -0.9829357023        3.2171392119        2.4941291490
 H         -0.9316090762        2.1403591783        2.6790357542
 H         -0.8289583237        3.7248711445        3.4505169825
 C          0.1832164237        3.6056576190        1.5759432003
 H          1.1068863433        3.5134051716        2.1551484906
 H          0.0753343649        4.6475839981        1.2646627641
 H         -3.1661329807        2.5334694167       -1.2610049370
 H         -3.5647701018        4.1137824301       -0.5787829591
 H         -1.2416615569        4.7237185362       -0.3829631528
 H         -1.4994687038        4.0751934682       -2.0132386230
 O         -0.2191753507        2.0056243759       -1.8117100088
 C          0.7579954270        1.0218875384       -1.8206715349
 O          0.7927759372        0.3411499362       -2.8656514734
 H          0.2987517503       -1.2896546937       -0.2467740507
 C          1.0390932594       -1.6591885630        0.4477176432
 C          2.3480147110       -1.2069286452        0.3417315290
 C          3.2960548537       -1.7057685605        1.2247039456
 C          2.9253379282       -2.6077011632        2.2078923578
 C          1.6105177913       -3.0144921589        2.3417631413
 C          0.6571429343       -2.5306689980        1.4525951552
 N         -0.6889280967       -2.9168765308        1.5383472158
 S         -1.8784837181       -1.7979895214        1.1645340996
 O         -1.4893027176       -0.4549547765        1.5223968150
 O         -3.0656425041       -2.3080366139        1.8202023182
 C         -2.0905407401       -1.9505356065       -0.5954941481
 C         -2.1667978619       -3.2147642749       -1.1456304114
 C         -2.3476525430       -3.3374037071       -2.5136560061
 C         -2.4506480229       -2.2020785843       -3.3035787960
 C         -2.3802474088       -0.9401184323       -2.7353017323
 C         -2.2009215044       -0.8123447333       -1.3677188876
 H         -2.1231503879        0.1522263571       -0.8906950406
 H         -2.4446006597       -0.0550417147       -3.3478180125
 H         -2.5829830173       -2.2981890258       -4.3696709440
 H         -2.4025267611       -4.3165435534       -2.9616928441
 H         -2.0782610736       -4.0727603144       -0.5003455345
 H         -0.9267957522       -3.4700257978        2.3487857911
 H          1.3198281327       -3.6949975913        3.1275707914
 H          3.6692102448       -2.9849225578        2.8933062945
 H          4.3207271504       -1.3798250590        1.1532367988
 C          2.6448938844       -0.1923733653       -0.7356056739
 H          2.5414026746       -0.6902392162       -1.7111325579
 C          4.0290597767        0.4129823576       -0.6386438685
 C          5.2011900624       -0.2805517828       -1.2635786518
 C          4.6597143050        0.9752243994       -1.8759175550
 H          5.2376595628        1.8833564436       -1.7931384123
 H          4.0990063990        0.8973251728       -2.7961857826
 H          5.0161389413       -1.2128364108       -1.7752014104
 H          6.1559407287       -0.2330919851       -0.7619202982
 H          4.1840782696        0.9497606996        0.2900755751
 O          2.1016750879        1.5483432417        1.5000151169
