  62
        -98.94587868
 C         -1.6945111407       -1.3074142526        0.4193884767
 C         -1.2969710261       -0.2206513157       -0.3958693866
 C         -1.8919641042        1.0797244622       -0.0668146796
 C         -2.7069233612        1.1954050371        0.9958221733
 C         -3.3666697679        2.4596904218        1.4757400501
 C         -4.6669931859        2.8082274955        0.7378300312
 C         -4.4895286363        3.3134303151       -0.6946952069
 H         -5.4507037764        3.7245144134       -1.0096189647
 H         -3.7671962020        4.1302293686       -0.7020329717
 C         -4.0606693255        2.2346303857       -1.6989529241
 H         -4.2483720077        1.2464530861       -1.2727102694
 H         -4.6698290096        2.3150714604       -2.6019300283
 C         -2.5963520482        2.3174032385       -2.1298512833
 H         -2.3924566075        1.4877397073       -2.8111510344
 H         -2.4261835020        3.2496829669       -2.6725152256
 C         -1.5940661772        2.2375850066       -0.9707155123
 H         -1.5945071550        3.1684554144       -0.4035970703
 H         -0.5939465942        2.0874892691       -1.3846616295
 H         -5.3136406439        1.9275818649        0.7370549094
 H         -5.1687553121        3.5876510519        1.3159759212
 H         -2.6633756809        3.2895600403        1.3960736450
 H         -3.5991038279        2.3055922784        2.5319624698
 O         -3.0173479139        0.1398654603        1.7957456829
 C         -2.5191391765       -1.1253864240        1.5310777301
 O         -2.8745887993       -1.9962390076        2.3524492992
 O         -0.4883543129       -0.3193167699       -1.3552259678
 C         -1.1372235880       -2.7047282452        0.2040841855
 C          0.3518529892       -2.6170591343       -0.0296178225
 C          1.0132664735       -3.2266404811       -1.0876989755
 C          2.3819715956       -3.0801560281       -1.2375447607
 C          3.1128394683       -2.3045191442       -0.3568859516
 C          2.4588910770       -1.6905772341        0.7052504803
 C          1.0988198007       -1.8771121021        0.8798566573
 H          0.6057241622       -1.3933940199        1.7115332161
 N          3.1457768989       -0.8569740308        1.6152823583
 S          2.7370058833        0.7699006017        1.5886218925
 O          3.5859185043        1.3878450290        2.5857412032
 O          1.3173133501        0.9249604348        1.7742484286
 C          3.2416341939        1.3218146549       -0.0320508756
 C          4.4529220779        1.9755652452       -0.1583555304
 C          4.8887102457        2.3461640405       -1.4198810515
 C          4.1140426701        2.0479018292       -2.5310352138
 C          2.9041206343        1.3872835023       -2.3868554116
 C          2.4583892254        1.0157386884       -1.1268677883
 H          1.5178466871        0.5023776845       -0.9950100619
 H          2.2964214160        1.1504806806       -3.2455620695
 H          4.4536969593        2.3320492447       -3.5145875453
 H          5.8289388021        2.8615491170       -1.5325347562
 H          5.0189495875        2.1867056102        0.7346439579
 H          4.1523177717       -0.9388685497        1.5574148655
 H          4.1754516529       -2.1665758893       -0.4900210635
 H          2.8819475984       -3.5594209038       -2.0652770616
 H          0.4559640103       -3.8000856350       -1.8099003031
 H         -1.2944966851       -3.2233459001        1.1649897156
 C         -1.8726228513       -3.5143771464       -0.8543105555
 C         -3.2910824587       -3.1982860146       -1.2219941627
 C         -2.1895366455       -2.9510541367       -2.2059184817
 H         -2.1159083728       -3.6030411517       -3.0639868779
 H         -1.8913542656       -1.9334400412       -2.4004143203
 H         -3.9688862280       -4.0200952705       -1.3985300133
 H         -3.7543541778       -2.3472657473       -0.7433871448
 H         -1.6164846281       -4.5684198725       -0.8107943956
