  62
        -98.93727017
 C          1.8276267203        0.9479131266       -0.2184205904
 C          2.9688204353        1.1105504197        0.6083010100
 C          4.2296653219        0.5598216914        0.0964901498
 C          4.2471628016       -0.0567005187       -1.0987231452
 C          5.4497106620       -0.6316844477       -1.7992975756
 C          6.1302739198       -1.8314993103       -1.1126561669
 C          7.3035892334       -1.4553655042       -0.1993200813
 H          8.1003523673       -2.1902295797       -0.3314479081
 H          7.7070024879       -0.4951349455       -0.5232038747
 C          6.9917284373       -1.3998234226        1.2992621821
 H          6.9522918371       -2.4180239720        1.6931437256
 H          7.8201946155       -0.8884079588        1.7941581643
 C          5.6829711588       -0.7096004728        1.6842351134
 H          4.8403607218       -1.3686118267        1.4608107105
 H          5.6806002897       -0.5637143450        2.7662614407
 C          5.4374821480        0.6410135667        0.9838940821
 H          6.3137966538        0.9431597341        0.4124258731
 H          5.2273668402        1.4125633859        1.7271844604
 H          5.3858460140       -2.4056679881       -0.5614236694
 H          6.5106803836       -2.4756000127       -1.9071409810
 H          6.1829136636        0.1646662625       -1.9462913210
 H          5.0918021103       -0.9409922132       -2.7834707084
 O          3.1292366526       -0.1962030969       -1.8604265070
 C          1.8959877658        0.2822265537       -1.4421287017
 O          0.9738436164        0.0584922225       -2.2506256311
 O          2.9360194397        1.7019483566        1.7197626825
 C          0.5068608577        1.4978630414        0.2955428110
 C         -0.3633360342        0.3510164787        0.7468247790
 C         -0.3200345549       -0.0749826298        2.0705521555
 C         -1.0956294882       -1.1378557564        2.4980246554
 C         -1.9253820468       -1.8032320016        1.6124262692
 C         -1.9652101415       -1.3923130480        0.2869222118
 C         -1.2000125230       -0.3150495727       -0.1368557140
 H         -1.2267338902       -0.0170667893       -1.1733160466
 N         -2.8080856857       -2.0685441587       -0.6235721367
 S         -4.4504830869       -1.9183539594       -0.3295737183
 O         -4.7777580461       -2.6393149105        0.8741933084
 O         -5.1106544483       -2.3558822949       -1.5383339105
 C         -4.6961209133       -0.1696144253       -0.0829578609
 C         -4.9245974261        0.6279056316       -1.1863615084
 C         -5.0345217354        1.9978273320       -1.0119697161
 C         -4.9000356214        2.5446669416        0.2550156309
 C         -4.6661957174        1.7301289130        1.3519974244
 C         -4.5622543312        0.3585902212        1.1853651975
 H         -4.3864075385       -0.3083517036        2.0131896809
 H         -4.5617749528        2.1581747602        2.3359272305
 H         -4.9780888618        3.6122121067        0.3882759407
 H         -5.2197398799        2.6332792183       -1.8633490106
 H         -5.0249711672        0.1619627054       -2.1537359554
 H         -2.6136763125       -1.8237735511       -1.5847057490
 H         -2.5454978692       -2.6274681002        1.9262955810
 H         -1.0528098238       -1.4536476367        3.5294311915
 H          0.3389682558        0.4322534199        2.7608510374
 H          0.7706080484        2.0886080589        1.1827348082
 C         -0.1857754816        2.4025049880       -0.7034142997
 C         -1.3504659051        3.2274074685       -0.2461002347
 C         -0.0454759174        3.8880626154       -0.5714441778
 H          0.0246407301        4.4793329031       -1.4721280332
 H          0.5555899152        4.2635044429        0.2436180950
 H         -2.1812917177        3.3633641282       -0.9208174042
 H         -1.6365607747        3.1485864865        0.7915980613
 H         -0.2161389166        1.9978291360       -1.7069441135
