  62
        -98.94519251
 C         -2.0791326793       -1.4467198603       -0.0015068495
 C         -1.8991200291       -0.4702909005       -1.0110375896
 C         -2.7764593490        0.7076294296       -0.9282208401
 C         -3.6755034392        0.7990939698        0.0677530097
 C         -4.5870972092        1.9682760799        0.2989104093
 C         -3.9419669094        3.0010486401        1.2336360892
 C         -2.5162202193        3.3887124999        0.8403049394
 H         -2.1836472094        4.1480705300        1.5511175593
 H         -1.8626199593        2.5219714499        0.9627290497
 C         -2.3769233489        3.9284115996       -0.5898699107
 H         -1.7411784389        4.8157647196       -0.5710656707
 H         -3.3526443788        4.2397001796       -0.9647598309
 C         -1.7439568688        2.9472533494       -1.5782066403
 H         -0.8129393189        2.5554210794       -1.1613775100
 H         -1.4925020985        3.4971251792       -2.4889533604
 C         -2.6207628387        1.7588595393       -1.9911276903
 H         -3.5971866587        2.1165070893       -2.3243020305
 H         -2.1316397186        1.2625463891       -2.8343590501
 H         -3.9175731796        2.5852852603        2.2435510093
 H         -4.5727400893        3.8918222901        1.2487678689
 H         -5.5070466293        1.6011524301        0.7571469092
 H         -4.8289082290        2.4285707297       -0.6571286209
 O         -3.8235642195       -0.1594159100        1.0169267399
 C         -3.0329110095       -1.2937275500        1.0103686303
 O         -3.2730324798       -2.0883228798        1.9412286204
 O         -1.0608746289       -0.5588689007       -1.9474974395
 C         -1.2525878294       -2.7233287003        0.0585252810
 C          0.1441971205       -2.4066936203        0.5369875012
 C          0.4775653802       -2.5877159700        1.8752752513
 C          1.7460309201       -2.2801423800        2.3337018015
 C          2.7055716203       -1.7799744602        1.4710856316
 C          2.3752385606       -1.5727563005        0.1376520515
 C          1.1053342207       -1.8955891405       -0.3229816687
 H          0.8516137509       -1.7170028907       -1.3561366488
 N          3.3320600408       -1.0632452007       -0.7587052584
 S          4.2371998308        0.2846446093       -0.3660592685
 O          4.9120133711        0.6523356390       -1.5892176884
 O          5.0821412406       -0.0232586405        0.7606469817
 C          3.0699984508        1.5558153595        0.0840581610
 C          2.6556985311        2.4455423793       -0.8871984193
 C          1.7399142010        3.4288611394       -0.5507601997
 C          1.2438566708        3.4955541397        0.7423588502
 C          1.6617370905        2.5887884099        1.7036673205
 C          2.5873092505        1.6105017598        1.3764628809
 H          2.9451107103        0.9005632199        2.1034948411
 H          1.2717354703        2.6408744001        2.7077191904
 H          0.5268073908        4.2579328598        1.0020468699
 H          1.4145552712        4.1369784193       -1.2958887699
 H          3.0690362313        2.3612360190       -1.8794079592
 H          2.9842465310       -0.9810620309       -1.7033496385
 H          3.7005491603       -1.5432317202        1.8120392118
 H          1.9934612699       -2.4359113098        3.3729985916
 H         -0.2723839800       -2.9656888598        2.5556913212
 H         -1.7324086996       -3.3477117701        0.8235807610
 C         -1.2641986892       -3.4835316206       -1.2527768989
 C         -0.8498720993       -4.9230969106       -1.2597330885
 C         -2.2883085692       -4.5557507806       -1.4645738889
 H         -2.7168617590       -4.6721891708       -2.4487975889
 H         -2.9844759694       -4.7485767004       -0.6610740590
 H         -0.2884517891       -5.2948603108       -2.1031673583
 H         -0.5695592295       -5.3659608204       -0.3158496783
 H         -1.0020273590       -2.8785930608       -2.1105356390
