  62
        -98.93578905
 C         -1.8897407986       -1.2221144224        0.0356693169
 C         -2.3569945366       -0.0474927025       -0.5962909851
 C         -3.7608687096        0.3300198133       -0.3338252990
 C         -4.4982795718       -0.4225405177        0.5017633054
 C         -5.9369327760       -0.2449976105        0.9168843126
 C         -6.3829221601        1.1825566162        1.2688558742
 C         -7.3311575677        1.7954064828        0.2367782471
 H         -8.0244799049        1.0220834353       -0.1005131519
 H         -7.9232638299        2.5730310536        0.7245056318
 C         -6.6501463809        2.4268306035       -0.9762388816
 H         -6.1570699772        3.3528866017       -0.6723912868
 H         -7.4313949566        2.6948890246       -1.6914991331
 C         -5.6208885717        1.5423945161       -1.6828618637
 H         -5.9781054669        0.5150733870       -1.7443910850
 H         -5.5174422643        1.9054678568       -2.7076992139
 C         -4.2297206684        1.5772440758       -1.0324078360
 H         -3.4708962933        1.7660156103       -1.7983474533
 H         -4.1640680642        2.4175279891       -0.3349800162
 H         -6.9081066905        1.1408288102        2.2244882215
 H         -5.5111756918        1.8200545877        1.4086696232
 H         -6.0628119985       -0.8970694915        1.7842075295
 H         -6.5773281962       -0.6492258712        0.1289383628
 O         -3.9983488681       -1.5399631808        1.1034587380
 C         -2.7014441748       -1.9646404791        0.8951075909
 O         -2.3912111749       -2.9988003726        1.5189712082
 O         -1.6493169673        0.6617077250       -1.3597775217
 C         -0.4626174668       -1.7114533616       -0.1536303459
 C          0.4732955912       -0.7350069158        0.5151393863
 C          0.6477637636       -0.7983731026        1.8946803690
 C          1.4810252980        0.0932685226        2.5441526407
 C          2.1551680861        1.0698922182        1.8315119849
 C          1.9792961627        1.1459971741        0.4569208426
 C          1.1524644136        0.2416350594       -0.1959232215
 H          1.0159686721        0.3209535155       -1.2624790401
 N          2.6764045910        2.1299478584       -0.2735039020
 S          4.3453570847        2.0871468891       -0.1296948723
 O          4.7357675655        2.7006700988        1.1146760678
 O          4.8571782890        2.7076523831       -1.3310306330
 C          4.7327065051        0.3459068261       -0.0996112047
 C          5.1001625294       -0.2569282281        1.0857740895
 C          5.3135151449       -1.6260938414        1.1022140669
 C          5.1503461499       -2.3647139749       -0.0591889456
 C          4.7830744766       -1.7436622820       -1.2432483322
 C          4.5677813288       -0.3757220630       -1.2653411695
 H          4.2869562003        0.1418072043       -2.1685944375
 H          4.6582309849       -2.3214587281       -2.1449399968
 H          5.3105738486       -3.4313030847       -0.0430345591
 H          5.5998335046       -2.1121979533        2.0209097251
 H          5.2145627403        0.3538332956        1.9660802648
 H          2.4046591160        2.1675848788       -1.2455359140
 H          2.8117753485        1.7738981808        2.3169030369
 H          1.6078528195        0.0288980597        3.6141382044
 H          0.1130883309       -1.5555538012        2.4515610810
 H         -0.4007453315       -2.6629483423        0.3908241944
 C         -0.1355472074       -1.9609021834       -1.6116191430
 C          1.1250095557       -2.6922579530       -1.9614465524
 C         -0.2050179641       -3.3561036715       -2.1514214852
 H         -0.5716803741       -3.5009236576       -3.1566917173
 H         -0.4876012043       -4.1430397346       -1.4675590228
 H          1.6729029825       -2.3829010552       -2.8382825887
 H          1.7489641519       -3.0240956221       -1.1454668613
 H         -0.4569079790       -1.1608374996       -2.2666741191
