  62
        -98.93760786
 C         -1.8584322294       -0.2029265960       -0.1050201149
 C         -2.8846591291       -1.0942515782        0.2886566908
 C         -4.2039923611       -0.4951010142        0.5370296620
 C         -4.3543423706        0.8349845654        0.3999808735
 C         -5.6492705122        1.5835332622        0.5415366832
 C         -6.5059670596        1.3965987632       -0.7270432829
 C         -7.8076434199        0.6269166709       -0.5015650574
 H         -8.5281792965        1.2847044535       -0.0109339095
 H         -8.2105721746        0.3719370607       -1.4840757115
 C         -7.6926973369       -0.6497443899        0.3370098246
 H         -8.6170301466       -1.2118390240        0.1875287680
 H         -7.6544205154       -0.3908527817        1.3961557105
 C         -6.5033322180       -1.5623786941        0.0113374583
 H         -6.8426455838       -2.5981444945        0.0769295445
 H         -6.1656213001       -1.4033803524       -1.0129874924
 C         -5.3063408028       -1.4217726758        0.9703064750
 H         -5.6645635483       -1.1261272703        1.9602597715
 H         -4.8251408597       -2.3988325363        1.0733146179
 H         -5.9008708662        0.8803182384       -1.4753791837
 H         -6.7544491404        2.3732359994       -1.1452860110
 H         -6.1843377945        1.2309201889        1.4204662342
 H         -5.4021051156        2.6360406294        0.6814553726
 O         -3.3397593824        1.6609435606        0.0337460657
 C         -2.0688329761        1.1698413571       -0.2296836734
 O         -1.2406500491        2.0405748013       -0.5561386412
 H          1.8069918039        0.7310848770       -0.9402675066
 C          1.6206780695        0.5949609339        0.1111879584
 C          0.5229039159       -0.1256947530        0.5518098238
 C          0.3159671039       -0.2548976223        1.9239895377
 C          1.1750153760        0.3371835885        2.8276955058
 C          2.2678382344        1.0618719069        2.3832383326
 C          2.4872465259        1.1930765002        1.0181410849
 N          3.5791504147        1.9374777309        0.5425764100
 S          4.5487477078        1.3384330205       -0.6793121463
 O          5.7350161225        2.1646798671       -0.6372961981
 O          3.8328535310        1.3130832874       -1.9283605023
 C          4.9441368681       -0.3180704764       -0.1505770252
 C          4.1828563317       -1.3786260436       -0.5976954400
 C          4.4577245306       -2.6486079260       -0.1149634698
 C          5.4814569095       -2.8348045676        0.8008685665
 C          6.2403572660       -1.7590084908        1.2367625783
 C          5.9677457878       -0.4867151096        0.7618344977
 H          6.5390514807        0.3750190758        1.0669730289
 H          7.0390736766       -1.9079826908        1.9453841067
 H          5.6899893423       -3.8248695652        1.1745512685
 H          3.8697650928       -3.4863758509       -0.4545940376
 H          3.3981771153       -1.1960405882       -1.3128771396
 H          4.1419708588        2.3575731213        1.2678289080
 H          2.9367580368        1.5334155983        3.0870776237
 H          0.9962984351        0.2339119227        3.8873146511
 H         -0.5402220314       -0.8182265100        2.2692708226
 C         -0.4736453267       -0.7612711017       -0.3847842661
 H         -0.5400687454       -1.8321575056       -0.1427741322
 C         -0.1250603280       -0.6153226826       -1.8500582074
 C          0.8232628460       -1.5795455885       -2.4953780395
 C         -0.6378709418       -1.6311081819       -2.8248010704
 H         -0.9624743892       -1.2934064757       -3.7976160772
 H         -1.2225835697       -2.4482511054       -2.4280797543
 H          1.5085107134       -1.2060379793       -3.2422514167
 H          1.2230968850       -2.3707841118       -1.8790093847
 H         -0.1042589026        0.4182013405       -2.1781686623
 O         -2.7029754512       -2.3334691582        0.4316497167
