  62
        -98.94372553
 C         -1.2074318606       -0.9530265762        0.2375442985
 C         -1.6628334346        0.1782070717        0.9605163518
 C         -2.6478921629        1.0272555083        0.2835258675
 C         -2.9968314568        0.7568146760       -0.9867418925
 C         -3.9609433657        1.5486895760       -1.8278230956
 C         -5.4351922271        1.1870671326       -1.5998218720
 C         -6.0256982528        1.6656524191       -0.2727813700
 H         -5.8288392466        2.7315240105       -0.1533716837
 H         -7.1080318131        1.5394635815       -0.3403917727
 C         -5.5155367621        0.9042014023        0.9585977588
 H         -5.0524372964       -0.0325464669        0.6398185940
 H         -6.3595467645        0.6419605889        1.6003030743
 C         -4.5180246615        1.6823621808        1.8166934375
 H         -5.0097747095        2.5569359478        2.2480561249
 H         -4.1957126792        1.0371280926        2.6378539885
 C         -3.2664966319        2.1491539072        1.0614662833
 H         -3.5117538986        2.9801750341        0.3999798196
 H         -2.5300242844        2.4917956480        1.7927004943
 H         -5.5443378695        0.1028474621       -1.6781988884
 H         -6.0093515050        1.6381747947       -2.4123734207
 H         -3.8120776672        2.6140960400       -1.6476589743
 H         -3.7092507070        1.3367575341       -2.8694446947
 O         -2.4734145280       -0.2882416878       -1.6794505237
 C         -1.5724646319       -1.1692428362       -1.0922216396
 O         -1.1847452892       -2.0721647297       -1.8570859488
 H          1.0241681601        0.0546358811       -0.4555686757
 C          1.5455113386       -0.8836088658       -0.5639756577
 C          1.0302816052       -2.0216885038        0.0426491223
 C          1.6886778839       -3.2286761966       -0.1521737063
 C          2.8267427214       -3.2833359784       -0.9392291041
 C          3.3426107631       -2.1444726172       -1.5295473818
 C          2.6874851800       -0.9315754312       -1.3443110660
 N          3.1634345948        0.2477428877       -1.9322443924
 S          2.8798710730        1.7309094879       -1.2252854398
 O          1.5067992043        2.1310005850       -1.4137171200
 O          3.8745214761        2.5986842806       -1.8202133294
 C          3.2413793679        1.5047767712        0.5075152506
 C          2.2407734540        1.6010189554        1.4522525100
 C          2.5511403818        1.3777611821        2.7844777539
 C          3.8520576952        1.0683377045        3.1483996484
 C          4.8504625610        0.9874446591        2.1890376917
 C          4.5442781933        1.2043782052        0.8559452551
 H          5.2948621291        1.1587069505        0.0838965449
 H          5.8626595064        0.7523248121        2.4758985976
 H          4.0876487449        0.8918298397        4.1859768266
 H          1.7660822388        1.4375485423        3.5216134604
 H          1.2342855843        1.8378530812        1.1431452691
 H          4.0689417331        0.1857575749       -2.3717458133
 H          4.2306842658       -2.1914328782       -2.1405840712
 H          3.3235465785       -4.2295054160       -1.0910740961
 H          1.3034307493       -4.1308715851        0.2932952848
 C         -0.1898624758       -1.8520486583        0.9144308043
 H          0.1261717352       -1.2711194951        1.7989553475
 C         -0.7514945037       -3.1642342099        1.4436941247
 C         -2.2250268848       -3.3624687967        1.6337365180
 C         -1.4979123793       -4.1257644679        0.5697179759
 H         -1.3388208969       -5.1839375114        0.7182138607
 H         -1.6501540880       -3.8437121897       -0.4599687961
 H         -2.5629451820       -3.8915150844        2.5123778891
 H         -2.8827250353       -2.5621696476        1.3255796481
 H         -0.1145505374       -3.6002462110        2.2070163084
 O         -1.2542507133        0.4707603559        2.1163828187
