  62
        -98.93824197
 C         -2.4785195118       -1.3816399382        0.1372956442
 C         -2.5956180373       -0.3576667224       -0.8294268690
 C         -3.5817293970        0.7108812694       -0.5590750812
 C         -4.3047133090        0.6634080988        0.5745833374
 C         -5.3374518994        1.6383601336        1.0756613808
 C         -4.7182700985        2.9251712210        1.6414321765
 C         -3.6167193397        3.5373194388        0.7807285746
 H         -3.2032659157        4.3897992600        1.3263657914
 H         -2.8089719133        2.8124440678        0.6601709716
 C         -4.0657063272        4.0339201298       -0.5917448191
 H         -4.8635663777        4.7687020385       -0.4637186979
 H         -3.2122074510        4.5462065843       -1.0435919379
 C         -4.5431826396        2.9583658876       -1.5709076074
 H         -4.5627285162        3.4117363382       -2.5662434546
 H         -5.5617966881        2.6485488340       -1.3535098441
 C         -3.6331573394        1.7380888176       -1.6649748243
 H         -3.8917780176        1.1781427291       -2.5717415214
 H         -2.6002735732        2.0725490914       -1.8194060876
 H         -5.5160207451        3.6552639947        1.7884099182
 H         -4.2873825511        2.6936415599        2.6185855084
 H         -6.0499552155        1.8672570977        0.2888760604
 H         -5.8786412012        1.1319325016        1.8780046689
 O         -4.1501385120       -0.3386779406        1.4864150644
 C         -3.2508799413       -1.3662761446        1.3027817207
 O         -3.2329876975       -2.2038385197        2.2269065200
 H          0.1627709321       -1.0228588608       -1.4878068462
 C          0.6130159854       -1.3170660920       -0.5518122634
 C         -0.1103715833       -2.1031665916        0.3333835898
 C          0.4677053093       -2.4329937180        1.5542791005
 C          1.7389740113       -1.9903817312        1.8744300843
 C          2.4571464678       -1.2072545822        0.9881022840
 C          1.8817226673       -0.8595421001       -0.2266502232
 N          2.5950963070       -0.0494309543       -1.1298397167
 S          3.2174695150        1.3953594300       -0.5395547440
 O          2.4493296831        1.8875332591        0.5814816739
 O          3.3135981302        2.2696794408       -1.6883604826
 C          4.8611639954        0.9564889559       -0.0122299873
 C          5.2662591178        1.2208856987        1.2812556807
 C          6.5534104431        0.8759711476        1.6639909825
 C          7.4078023535        0.2768508038        0.7511714675
 C          6.9862305009        0.0201616743       -0.5451277223
 C          5.7015021729        0.3635227396       -0.9342800355
 H          5.3355910435        0.1855190971       -1.9316226428
 H          7.6534979605       -0.4458389816       -1.2521706758
 H          8.4082343613        0.0085248446        1.0519091272
 H          6.8829148326        1.0751800203        2.6710892759
 H          4.5650893769        1.6832075073        1.9579113107
 H          2.0917741843        0.1147666819       -1.9907657550
 H          3.4451921901       -0.8536689527        1.2343074021
 H          2.1749841102       -2.2560131761        2.8254493832
 H         -0.0976611031       -3.0252120758        2.2596228804
 C         -1.5141441373       -2.5518894626        0.0041136283
 H         -1.8227547986       -3.2722337355        0.7732690892
 C         -1.5958539562       -3.2317813567       -1.3482993801
 C         -1.0594585162       -4.6229401993       -1.4927725127
 C         -2.5379967109       -4.3815199248       -1.5321252335
 H         -3.0538448595       -4.4780838530       -2.4757295336
 H         -3.1285659420       -4.6848877372       -0.6797422233
 H         -0.6465397317       -5.0917394775       -0.6124119263
 H         -0.5571214837       -4.8884923233       -2.4101689136
 H         -1.4761962671       -2.5544254560       -2.1831541886
 O         -1.9213510995       -0.3069107368       -1.8945137716
