  62
        -98.94106663
 C         -2.6136332092       -1.3155793142        0.2387984118
 C         -2.3742244926       -0.2538447123       -0.6709240047
 C         -3.4350733295        0.7614428039       -0.7595149443
 C         -4.5603988277        0.6307281243       -0.0361534110
 C         -5.7358488438        1.5695457981       -0.0417503150
 C         -5.5718767707        2.7754522752        0.8934686628
 C         -4.5741044859        3.8339744655        0.4215068246
 H         -4.8107135622        4.1247107566       -0.6024694369
 H         -4.7183433558        4.7138502392        1.0515376561
 C         -3.1030139255        3.4026672448        0.5080930419
 H         -2.5121485588        4.2055019049        0.9547678490
 H         -3.0132823149        2.5367367233        1.1683164584
 C         -2.4601713807        3.0657195910       -0.8376496460
 H         -1.4322286387        2.7383615829       -0.6561626752
 H         -2.4198247182        3.9630560766       -1.4595799667
 C         -3.1800136211        1.9605405928       -1.6218018396
 H         -4.1143433793        2.3399049226       -2.0354448723
 H         -2.5320281437        1.6493637345       -2.4451423955
 H         -6.5517411715        3.2485124344        0.9899227298
 H         -5.2782655405        2.4137373779        1.8815319989
 H         -5.9228111561        1.9178529713       -1.0578462796
 H         -6.5987092797        0.9894864493        0.2924840257
 O         -4.7669186816       -0.4192872530        0.8018367140
 C         -3.7915565143       -1.3839420962        0.9905837861
 O         -4.0906363782       -2.2464067792        1.8402644713
 H          0.5452255591       -2.0379425170       -1.1533557889
 C          0.7225269743       -1.6308261478       -0.1701733691
 C         -0.2535821199       -1.7482773236        0.8055334646
 C         -0.0205241869       -1.1846845412        2.0561149510
 C          1.1649282117       -0.5252911930        2.3221445629
 C          2.1339480447       -0.4004770326        1.3418715938
 C          1.9004812116       -0.9406500532        0.0847205770
 N          2.8688187723       -0.8012393460       -0.9235648178
 S          3.5979669150        0.6955225648       -1.1363946529
 O          2.7482924496        1.7859696705       -0.7188776799
 O          4.0339979250        0.7082430726       -2.5162649305
 C          5.0352922426        0.6076611661       -0.0859247481
 C          5.2795014409        1.6093449229        0.8329182353
 C          6.4110079692        1.5280831600        1.6298099160
 C          7.2749341108        0.4525033040        1.4934947185
 C          7.0171533308       -0.5443227961        0.5641776810
 C          5.8883810674       -0.4682073393       -0.2358351481
 H          5.6540338393       -1.2193658539       -0.9713679555
 H          7.6914272167       -1.3791907846        0.4610263613
 H          8.1543779222        0.3911233074        2.1148880000
 H          6.6127183772        2.3026917520        2.3522333755
 H          4.5768317726        2.4243114153        0.9073605958
 H          2.5742834391       -1.1788763005       -1.8129387481
 H          3.0524422845        0.1290721136        1.5356626348
 H          1.3346126626       -0.0971374680        3.2984955100
 H         -0.7878969089       -1.2606386940        2.8146779337
 C         -1.5843514574       -2.3988450716        0.5242344301
 H         -1.9315044556       -2.8787999171        1.4528923933
 C         -1.5006467212       -3.4985389235       -0.5236332232
 C         -2.7514859334       -4.0541107549       -1.1350539359
 C         -1.7859790496       -3.2783462571       -1.9773294794
 H         -1.1900790444       -3.8185580163       -2.6991106145
 H         -2.0603863211       -2.2858184576       -2.2972584585
 H         -3.6853551323       -3.5832690632       -0.8634816623
 H         -2.8256128948       -5.1208965069       -1.2824907240
 H         -0.7195662213       -4.2150288940       -0.2870403106
 O         -1.3468961735       -0.1423063482       -1.3888892653
