  62
        -98.94125356
 C         -1.8620981402       -0.5744913774        0.0054198401
 C         -2.5805738397       -0.0704902393        1.1194308614
 C         -3.6900740632        0.8435678926        0.8189393930
 C         -3.9145160472        1.2041888084       -0.4574286188
 C         -5.0441712771        2.0792852955       -0.9154251805
 C         -6.2792410325        1.2433764232       -1.2800808275
 C         -6.6689336225        0.2179399229       -0.2152151324
 H         -7.5690972954       -0.2901652472       -0.5676889480
 H         -5.8826804395       -0.5370764871       -0.1425325739
 C         -6.9293842772        0.8135638513        1.1755047415
 H         -7.1002761541        1.8874957452        1.0923062786
 H         -7.8416369329        0.3707359902        1.5807120098
 C         -5.8183688112        0.5551837020        2.1949753296
 H         -5.5811422329       -0.5116460154        2.2155148842
 H         -6.1957881476        0.8247577106        3.1849471469
 C         -4.5162176170        1.3351916509        1.9739804078
 H         -4.7385126058        2.3987200783        1.8644672550
 H         -3.8944091785        1.2039326587        2.8645561178
 H         -7.1152515489        1.9224856483       -1.4569064105
 H         -6.0730123019        0.7091538214       -2.2105012883
 H         -5.2916792178        2.7878449378       -0.1271890159
 H         -4.7157993435        2.6313414253       -1.7977839461
 O         -3.1508150797        0.7707631314       -1.4908377160
 C         -2.1118526247       -0.1331953625       -1.2953931477
 O         -1.5102046946       -0.4388638093       -2.3402360404
 H          0.5658152962        0.7157666193        0.6275264445
 C          1.0608110530        0.1014799367       -0.1150513153
 C          0.5157989617       -1.1360022275       -0.4382363696
 C          1.1591855580       -1.9141654048       -1.3904253584
 C          2.3035885890       -1.4506330858       -2.0167533092
 C          2.8339481888       -0.2133386746       -1.7040178346
 C          2.2033742299        0.5693898440       -0.7444054693
 N          2.7421326769        1.8233565418       -0.4096481076
 S          4.3955225307        1.9287857009       -0.1758279483
 O          4.5779566213        3.0350634640        0.7379171039
 O          5.0613810451        2.0497144201       -1.4487751333
 C          4.8555685770        0.3902507971        0.6023985984
 C          4.2839036543        0.0825779971        1.8212316582
 C          4.5989293673       -1.1241262229        2.4239560466
 C          5.4762860195       -1.9985225678        1.8006328536
 C          6.0468825171       -1.6723204142        0.5803983145
 C          5.7333204657       -0.4674675408       -0.0282815883
 H          6.1510764413       -0.1757140265       -0.9779895011
 H          6.7305349083       -2.3529838918        0.0993471494
 H          5.7161842254       -2.9389643691        2.2709757015
 H          4.1562440348       -1.3787579539        3.3735968480
 H          3.6097092529        0.7862595311        2.2829825690
 H          2.2355432161        2.3101689776        0.3145003275
 H          3.7132224608        0.1679989412       -2.1973950392
 H          2.7858710912       -2.0598538148       -2.7657189327
 H          0.7493714678       -2.8719957467       -1.6644397452
 C         -0.7389914745       -1.5577817338        0.2832465265
 H         -0.5539373110       -1.4539341269        1.3657938378
 C         -1.1123044097       -3.0140920212        0.0510004567
 C         -2.5291529784       -3.4783217568        0.2040216204
 C         -1.8861379930       -3.4681849188       -1.1487772203
 H         -1.6254622296       -4.4159185754       -1.5969485102
 H         -2.1915086382       -2.7187848180       -1.8617679390
 H         -2.7106907936       -4.4284558587        0.6836013341
 H         -3.2798510993       -2.7312467614        0.4183905650
 H         -0.3459172216       -3.6895982551        0.4181417827
 O         -2.3022250085       -0.3690793288        2.3120146275
