  62
        -98.93148042
 C          2.6178145697        1.0334788797        0.4920409293
 C          2.8717755729       -0.2002344687        1.1447458440
 C          4.1437282908       -0.8718618865        0.8354247445
 C          4.9910201824       -0.2990935675       -0.0363552908
 C          6.3601179036       -0.7626309414       -0.4680703408
 C          6.5535077960       -2.2609256822       -0.7327238639
 C          5.3327861148       -2.9732501657       -1.3330132143
 H          4.5908788051       -2.2392470437       -1.6528155180
 H          5.6453473492       -3.5272893468       -2.2201340451
 C          4.6837393966       -3.9644484195       -0.3642800387
 H          4.0873415508       -4.6771133944       -0.9390535582
 H          5.4714414891       -4.5286989964        0.1397314195
 C          3.7613185804       -3.3459301017        0.6854065691
 H          3.4526231199       -4.1393717323        1.3703241176
 H          2.8549441127       -2.9671923084        0.2047634914
 C          4.3688262435       -2.1965311500        1.5063547107
 H          3.8344111788       -2.1453309051        2.4588362593
 H          5.4226205037       -2.3710495172        1.7092689141
 H          6.8390714895       -2.7614258479        0.1913430141
 H          7.4010639508       -2.3528938667       -1.4141433197
 H          7.0809875708       -0.4367528714        0.2876769274
 H          6.5751531347       -0.1995227424       -1.3795933235
 O          4.7027047962        0.8801050049       -0.6527782648
 C          3.5225904979        1.5708046279       -0.4224689774
 O          3.4289959621        2.6215725620       -1.0864034066
 O          2.0713924356       -0.7120223040        1.9731000167
 C          1.3106482918        1.7273308022        0.8348635658
 C          0.2522097342        1.4386165560       -0.2038132560
 C          0.3493309333        1.9347906657       -1.4995114341
 C         -0.6391512074        1.6621150421       -2.4276558269
 C         -1.7396361467        0.8949928984       -2.0876950991
 C         -1.8461361894        0.3939730993       -0.7974187151
 C         -0.8535940973        0.6721705872        0.1348860975
 H         -0.9317291428        0.2707375574        1.1364691025
 N         -2.9510571913       -0.4024866085       -0.4480453490
 S         -4.4689129825        0.0928422342       -1.0024084815
 O         -4.6367473587       -0.3810130879       -2.3535024301
 O         -4.6262760512        1.5166399259       -0.8086455255
 C         -5.5476302470       -0.8081064197        0.0925924614
 C         -5.8198494919       -2.1345904669       -0.1838121209
 C         -6.6428520233       -2.8420813350        0.6778298228
 C         -7.1760654485       -2.2156192802        1.7946808857
 C         -6.8941096567       -0.8836518608        2.0583260984
 C         -6.0708075522       -0.1702884021        1.2013718270
 H         -5.8323736972        0.8690609280        1.3615199736
 H         -7.3123163316       -0.3988168548        2.9257672466
 H         -7.8179884031       -2.7680473087        2.4625696319
 H         -6.8667891505       -3.8770328640        0.4754779130
 H         -5.3912790914       -2.5766696145       -1.0680337953
 H         -2.9708626099       -0.6183518940        0.5392903893
 H         -2.5185757677        0.6832620253       -2.8026597274
 H         -0.5529784396        2.0526684416       -3.4308463412
 H          1.2118959172        2.5217031812       -1.7752065290
 H          0.9847698268        1.2650499111        1.7766459431
 C          1.4564778501        3.2188840151        1.0624506347
 C          0.3995135558        3.9370038043        1.8447194412
 C          1.7584660139        3.7242347328        2.4398285404
 H          2.4174101939        4.5731275593        2.5427801454
 H          1.8610998969        2.9940482450        3.2293846118
 H          0.1205499091        4.9333763530        1.5383193845
 H         -0.4213467791        3.3512145702        2.2303330190
 H          1.9109261084        3.7415964186        0.2315469646
