  62
        -98.94132909
 C         -0.5627195717       -1.4964081541        0.0409883922
 C         -1.4935765136       -1.2287344841        1.0704963191
 C         -2.4749548061       -0.1689200286        0.7959783930
 C         -2.4211277500        0.4835370115       -0.3799101434
 C         -3.4255227433        1.4926826370       -0.8603199518
 C         -4.7140970460        0.7764202636       -1.3145376241
 C         -5.9469780625        1.0985478345       -0.4705201664
 H         -6.3000553518        2.1004400183       -0.7233201284
 H         -6.7305017039        0.3919546477       -0.7522963121
 C         -5.7473769843        1.0408551278        1.0468037944
 H         -6.7412016341        1.0259715672        1.4993733464
 H         -5.2633299618        1.9563876425        1.3902582387
 C         -4.9502639806       -0.1600165163        1.5716751680
 H         -5.4079631753       -0.4889876091        2.5070062655
 H         -5.0118093069       -0.9978555132        0.8768307657
 C         -3.4707358419        0.1381526656        1.8802605513
 H         -3.3640429668        1.1829330838        2.1865973863
 H         -3.1605419305       -0.4821086073        2.7268657569
 H         -4.5318556641       -0.2999236209       -1.2973929467
 H         -4.9314148762        1.0420193354       -2.3500489030
 H         -3.6420565253        2.2045507985       -0.0667847585
 H         -2.9753103139        2.0222936881       -1.6987622151
 O         -1.4797184058        0.2300377766       -1.3248063476
 C         -0.5227356955       -0.7560799169       -1.1399908088
 O          0.2840026824       -0.8748898233       -2.0798608958
 H          1.4052700609       -0.2902282656        1.1552499156
 C          2.1688868422       -0.8517365511        0.6363551969
 C          1.8583430889       -2.0881237516        0.0846286477
 C          2.8643448824       -2.8009145494       -0.5562938188
 C          4.1417460377       -2.2775099638       -0.6533001754
 C          4.4411532028       -1.0359683359       -0.1243604844
 C          3.4425737932       -0.3185703883        0.5262977307
 N          3.7161216744        0.9413570017        1.0774879775
 S          2.5443837997        2.1029979443        1.2658264491
 O          3.2955171354        3.3212051052        1.4935364005
 O          1.6308098563        1.7368206668        2.3211615307
 C          1.6527720067        2.2759079525       -0.2712522365
 C          0.4322428046        2.9173975512       -0.1995355135
 C         -0.2629809995        3.1781997690       -1.3678367226
 C          0.2627994327        2.7768436231       -2.5855271227
 C          1.4833032542        2.1253471919       -2.6411450142
 C          2.1950063194        1.8824961835       -1.4769099357
 H          3.1458354752        1.3764571347       -1.5099455206
 H          1.8840649360        1.7982549285       -3.5866820969
 H         -0.2847320413        2.9661905780       -3.4953553934
 H         -1.2106356001        3.6906046900       -1.3215963643
 H          0.0505486585        3.1929928954        0.7712789383
 H          4.6162309536        1.3365299548        0.8504325392
 H          5.4343252411       -0.6222676417       -0.2091790425
 H          4.9131288656       -2.8404902063       -1.1561280621
 H          2.6474843055       -3.7659825034       -0.9835136158
 C          0.4506048271       -2.6082343884        0.2317030135
 H          0.3199531465       -2.9501610922        1.2699704327
 C          0.1365173091       -3.7595187040       -0.7032937662
 C          0.4242402122       -5.1729543744       -0.2959515121
 C         -0.9906299656       -4.6837641097       -0.3561564509
 H         -1.6292831889       -5.0408590662       -1.1500874009
 H         -1.5106127191       -4.5006636170        0.5730629278
 H          0.7549359085       -5.8706111375       -1.0506656590
 H          0.8614697462       -5.3341286358        0.6778601339
 H          0.2589200717       -3.4897011861       -1.7464314146
 O         -1.5093697947       -1.8557265966        2.1659209945
