  62
        -98.94654727
 C          1.0946982235        1.8024096349       -0.2402132164
 C          1.2261027954        0.6057649691       -0.9893452227
 C          2.5464458022       -0.0439115697       -0.9368035033
 C          3.5330230616        0.5071162210       -0.2091007356
 C          4.9088541708       -0.0691162018       -0.0423869109
 C          4.9901771144       -0.9835585691        1.1870626192
 C          3.8749194170       -2.0269757027        1.2593411119
 H          4.0627052176       -2.6443093307        2.1409376242
 H          2.9164221076       -1.5274727782        1.4219742732
 C          3.7632394948       -2.9265815308        0.0209579856
 H          4.6891181063       -2.8858100446       -0.5550725408
 H          3.6298201567       -3.9588353126        0.3518633461
 C          2.5779237023       -2.5955126968       -0.8880391392
 H          1.6721282255       -2.5234953568       -0.2795053353
 H          2.4437319202       -3.4273893664       -1.5861426668
 C          2.7162267788       -1.3143484512       -1.7212879890
 H          3.6750727786       -1.3191566221       -2.2448886743
 H          1.9157965639       -1.3132088336       -2.4671153225
 H          5.9590383977       -1.4867301361        1.1786608631
 H          4.9366732161       -0.3637536104        2.0851432700
 H          5.1742313942       -0.6255779821       -0.9392802770
 H          5.6120883398        0.7561140385        0.0839374361
 O          3.3736297920        1.6568215302        0.4952583434
 C          2.1577426124        2.3180456435        0.5061018806
 O          2.1495603835        3.3554456150        1.2012336352
 H         -0.7044705194        0.0183488222        0.4889198768
 C         -1.2949069606        0.7076724498        1.0682115479
 C         -1.1389390507        2.0726780036        0.8876158556
 C         -1.9027071419        2.9394887414        1.6618625324
 C         -2.8009634943        2.4453839847        2.5903239790
 C         -2.9616432397        1.0818924623        2.7609190262
 C         -2.1971564908        0.2071566879        1.9961567224
 N         -2.3257375629       -1.1749202540        2.1500095476
 S         -1.6920480755       -2.2797792037        1.0824586544
 O         -2.3269775770       -3.5265444759        1.4633893786
 O         -0.2518265405       -2.2752420147        1.1560039318
 C         -2.2468881004       -1.8297108818       -0.5521688514
 C         -3.4216834556       -1.1247323413       -0.7196706439
 C         -3.8383259439       -0.8152429941       -2.0041232457
 C         -3.0847355455       -1.2225597992       -3.0936735134
 C         -1.9155987702       -1.9417755573       -2.9086722029
 C         -1.4897082687       -2.2472349710       -1.6266316193
 H         -0.5742416267       -2.7858056992       -1.4427154353
 H         -1.3252732922       -2.2544159901       -3.7549454295
 H         -3.4077914771       -0.9740136109       -4.0925719674
 H         -4.7463152504       -0.2519836599       -2.1494733102
 H         -3.9919040000       -0.8112290800        0.1396186077
 H         -3.1087578936       -1.5125614332        2.6862390139
 H         -3.6625601846        0.6947922560        3.4841507953
 H         -3.3851691483        3.1282546472        3.1879904989
 H         -1.7796231303        4.0051692238        1.5415611686
 C         -0.1921032002        2.6059025530       -0.1623219033
 H          0.1058556525        3.6197106014        0.1398830716
 C         -0.9261841829        2.6950964874       -1.4888505839
 C         -1.7835950524        3.8872835788       -1.7827053947
 C         -0.4857978319        3.6998129401       -2.5086380841
 H         -0.5062922123        3.4172504849       -3.5501543554
 H          0.3422499410        4.3435899003       -2.2483063652
 H         -2.7029584401        3.7354074959       -2.3265207812
 H         -1.8351797711        4.6685963757       -1.0399749379
 H         -1.2588116016        1.7309861948       -1.8515489478
 O          0.3086013130        0.0890077710       -1.6788462046
