  62
        -98.94035840
 C         -2.4452346111       -1.0251165765       -0.0088459606
 C         -2.5246550762        0.3629587579        0.2572827378
 C         -3.8594056068        0.8655957917        0.6085174178
 C         -4.8967834672        0.0124128086        0.6909149405
 C         -6.3091231844        0.3676728234        1.0697456226
 C         -7.1571833579        0.8875901326       -0.0989040566
 C         -6.8100064748        2.2984103631       -0.5753748609
 H         -7.6121869562        2.6176073164       -1.2436378542
 H         -6.8062400475        2.9781922423        0.2771505194
 C         -5.4739697346        2.4023512883       -1.3242667908
 H         -5.1555001914        1.4071157401       -1.6431140087
 H         -5.6087582482        2.9994320800       -2.2290246028
 C         -4.3445275093        3.0479443568       -0.5210556429
 H         -4.5947585441        4.0897811622       -0.3085713488
 H         -3.4388750559        3.0377863406       -1.1333865500
 C         -4.0264403124        2.3422530112        0.8039223447
 H         -3.0797352114        2.7349548733        1.1834027828
 H         -4.8086551633        2.5448509531        1.5352648045
 H         -7.0674566599        0.1885506980       -0.9335099877
 H         -8.1995310065        0.8835700810        0.2278466869
 H         -6.7683239967       -0.5483876571        1.4473611983
 H         -6.2983398392        1.1074566040        1.8705253857
 O         -4.7707554725       -1.3205723954        0.4528473685
 C         -3.5540848998       -1.8664651031        0.0780659811
 O         -3.5853346958       -3.0957953355       -0.1345870689
 H          1.5222457557       -0.9209112542       -0.7300540350
 C          1.2335709348       -1.0334269388        0.3009930828
 C         -0.0654082159       -1.3836077172        0.6359151123
 C         -0.3900845156       -1.5317967948        1.9817915104
 C          0.5536022685       -1.3039427349        2.9641628055
 C          1.8423238053       -0.9304454295        2.6266641367
 C          2.1847797079       -0.8034658560        1.2856904862
 N          3.5064248930       -0.4900780424        0.9237321947
 S          3.8344363753        0.4119932483       -0.4629745661
 O          3.1350674786        1.6770667749       -0.4279093478
 O          3.6120739378       -0.4122414661       -1.6237010158
 C          5.5859396489        0.6652848776       -0.2396346926
 C          6.4402520810       -0.3867919965       -0.5118230652
 C          7.8005603402       -0.2139921982       -0.3130188178
 C          8.2819887024        1.0011195696        0.1517584185
 C          7.4131676643        2.0486154689        0.4174355426
 C          6.0508474924        1.8817420789        0.2221420978
 H          5.3387423971        2.6696648297        0.4086803386
 H          7.7906294738        2.9929599597        0.7752678459
 H          9.3413409353        1.1333572989        0.3053079047
 H          8.4796362045       -1.0250421161       -0.5210241039
 H          6.0212770484       -1.3088870755       -0.8792730378
 H          4.0482086984       -0.1473433070        1.7057792274
 H          2.5774539306       -0.7442843066        3.3948979415
 H          0.2823212840       -1.4114246157        4.0037925423
 H         -1.3992421186       -1.8177283631        2.2472905422
 C         -1.1204928356       -1.6436825493       -0.4123205938
 H         -1.2926414025       -2.7298110787       -0.4593915733
 C         -0.7216298141       -1.1560459124       -1.7903967811
 C          0.0619618686       -2.0404438389       -2.7112419243
 C         -1.3811636753       -1.7540975097       -2.9952899371
 H         -1.6282253320       -1.1065802581       -3.8232309522
 H         -2.1018199150       -2.5408343534       -2.8236715758
 H          0.8160995690       -1.5887930828       -3.3387020525
 H          0.3211270484       -3.0261629849       -2.3549967314
 H         -0.5149319338       -0.0909172118       -1.8102707100
 O         -1.5358753325        1.1414753881        0.2113964396
