  62
        -98.94848573
 C          2.3585315853        0.6122305052        0.1705454711
 C          1.5426915104        0.0077261445       -0.8153506215
 C          1.6761473966       -1.4489415453       -0.9615167367
 C          2.5251877864       -2.1183228181       -0.1624750306
 C          2.7620132407       -3.5999283031       -0.2041499413
 C          1.8437686681       -4.3528695449        0.7669378115
 C          0.3673043876       -3.9740845484        0.6481681891
 H         -0.1876549429       -4.6127038868        1.3398973344
 H          0.2241511341       -2.9454400096        0.9886730720
 C         -0.2174693553       -4.1216376432       -0.7634211928
 H         -1.1978484258       -4.5963431010       -0.6839171160
 H          0.4149765493       -4.7777921731       -1.3634422155
 C         -0.4248727366       -2.7936996933       -1.4941388835
 H         -1.0819751418       -2.9714259554       -2.3499880768
 H         -0.9352149539       -2.0982100648       -0.8232409246
 C          0.8460439993       -2.1154505078       -2.0224327283
 H          1.4439426656       -2.8382737801       -2.5823031893
 H          0.5387219231       -1.3193401018       -2.7068394247
 H          2.1688359386       -4.1412310638        1.7883995554
 H          1.9609041920       -5.4239032713        0.5883459588
 H          2.6019813257       -3.9565702045       -1.2200551731
 H          3.8003687335       -3.7864212310        0.0770953119
 O          3.2636850749       -1.5116045467        0.8026732992
 C          3.1767412512       -0.1451271608        1.0109714125
 O          3.8731910380        0.2737443980        1.9586828771
 H          0.3238299195        1.0367276580        1.8304688132
 C         -0.0280639111        1.8695451580        1.2381236731
 C          0.8662735132        2.5682487645        0.4357724339
 C          0.3883794572        3.6360049199       -0.3127412620
 C         -0.9530211209        3.9769072776       -0.2708629216
 C         -1.8474172509        3.2467192202        0.4896265139
 C         -1.3780118995        2.1752564272        1.2410366256
 N         -2.2494054747        1.3702454962        2.0059996152
 S         -2.3965668868       -0.2349732025        1.5415683641
 O         -3.3250589367       -0.8172001681        2.4875453832
 O         -1.0949925581       -0.8453502797        1.4693725548
 C         -3.1696429873       -0.1709086813       -0.0661795988
 C         -4.5147465945       -0.4741415862       -0.1602936961
 C         -5.1406669013       -0.3825758179       -1.3924751617
 C         -4.4153769513        0.0183643536       -2.5046096675
 C         -3.0685219385        0.3246919357       -2.3912633322
 C         -2.4325997042        0.2326211475       -1.1618923818
 H         -1.3819110532        0.4595617575       -1.0620901758
 H         -2.4970650579        0.6370106572       -3.2505642018
 H         -4.9013362402        0.0918038744       -3.4648141522
 H         -6.1880738334       -0.6222733545       -1.4810542465
 H         -5.0350576694       -0.7833889134        0.7318982945
 H         -3.1745302527        1.7640820103        2.1140265517
 H         -2.8985196505        3.4937573576        0.4982108566
 H         -1.3099343571        4.8094020618       -0.8578209595
 H          1.0597533033        4.1894859466       -0.9482682834
 C          2.3037967698        2.1076317240        0.4384693400
 H          2.6912919690        2.2262837888        1.4646162041
 C          3.2060615688        2.9343433978       -0.4666266200
 C          4.4166070656        2.3316526972       -1.1132710416
 C          3.2413457900        2.7322122724       -1.9506686395
 H          3.3392029325        3.6009607794       -2.5850398439
 H          2.6136907488        1.9572748900       -2.3606171866
 H          5.3163623428        2.9262831644       -1.1659904543
 H          4.5995725217        1.2788243991       -0.9527789036
 H          3.3165624110        3.9531686328       -0.1082863172
 O          0.7496922719        0.6463385550       -1.5557049336
