  62
        -98.93776571
 C          2.5689817904        0.0503879688       -0.1447032192
 C          2.4286187012        1.1869508289       -0.9760708292
 C          1.8712557918        2.4019996592       -0.3587016693
 C          1.5215251815        2.3680268994        0.9386017007
 C          0.8444913320        3.4472592598        1.7373323406
 C         -0.6817015481        3.2520687807        1.7009357402
 C         -1.3889393774        3.9469187611        0.5386586901
 H         -2.4387572176        3.6460316118        0.5727132199
 H         -1.3478807168        5.0290004811        0.6852999801
 C         -0.8345144673        3.6174176008       -0.8497069198
 H         -1.6092322670        3.8504659213       -1.5836260499
 H         -0.6464740780        2.5431891207       -0.9229637098
 C          0.4333359332        4.4123381001       -1.1976931295
 H          0.5522631035        5.2230258700       -0.4787216894
 H          0.3067146537        4.8805774202       -2.1761771295
 C          1.7287028627        3.5916603293       -1.2688084793
 H          1.8412308727        3.1808246593       -2.2772973092
 H          2.5822021431        4.2590143588       -1.1054539091
 H         -1.1071513181        3.6304881309        2.6330554901
 H         -0.8828238387        2.1779055308        1.6566117501
 H          1.1271071327        4.4330085896        1.3791871306
 H          1.1868582317        3.3332154295        2.7679983406
 O          1.6978083607        1.2643051193        1.7128323407
 C          2.1649951101        0.0710925990        1.1922026407
 O          2.1913237294       -0.8622168510        2.0166435507
 O          2.7382400815        1.1796268988       -2.2003647591
 C          2.9676739798       -1.2619376414       -0.8016056592
 C          1.9112801691       -2.2829327008       -0.4581631394
 C          2.1598993882       -3.5202568410        0.1178235606
 C          1.1054981477       -4.3460790704        0.4717344104
 C         -0.2056686921       -3.9488393696        0.2864727001
 C         -0.4630405112       -2.7149905494       -0.3019993899
 C          0.5929142993       -1.9158568400       -0.6992434897
 H          0.3844905800       -0.9589493699       -1.1569395697
 N         -1.7778091209       -2.2557393986       -0.5081314502
 S         -2.0375824399       -0.5918610885       -0.3325025902
 O         -1.7059202993        0.0576538214       -1.5764360401
 O         -1.3760419399       -0.0967946489        0.8523709400
 C         -3.8066295200       -0.5677286774       -0.1096268106
 C         -4.3315829702       -0.4558760971        1.1636003593
 C         -5.7084401102       -0.4702845063        1.3247752490
 C         -6.5316233401       -0.5996098058        0.2163703989
 C         -5.9898424199       -0.7099837561       -1.0558459710
 C         -4.6144583698       -0.6941414069       -1.2240152007
 H         -4.1464951197       -0.7660878671       -2.1918558106
 H         -6.6328521297       -0.8066858857       -1.9155877312
 H         -7.6023925501       -0.6112253252        0.3446972686
 H         -6.1317264304       -0.3805099561        2.3121987190
 H         -3.6514875803       -0.3503333776        1.9939744595
 H         -2.4615506213       -2.7897468482        0.0115424097
 H         -1.0231831825       -4.5798096191        0.6009835999
 H          1.3094773470       -5.3034618605        0.9271141904
 H          3.1736159480       -3.8246976216        0.3210150008
 H          2.8972456901       -1.0525521313       -1.8832575792
 C          4.3918027194       -1.7250923423       -0.5463714589
 C          5.4695330699       -0.7386090429       -0.2116174286
 C          5.0122505691       -1.7266264327        0.8171212313
 H          5.6764036386       -2.5393401331        1.0729753014
 H          4.4091783792       -1.3766411424        1.6393204711
 H          6.4436153800       -0.8692359235       -0.6586666684
 H          5.1765255205        0.2946722372       -0.0922182686
 H          4.6759061291       -2.5366336924       -1.2096915388
