  62
        -98.94348643
 C          1.9766360432        0.7905673690        0.5410660531
 C          2.1146143390        0.1168413420       -0.6963169707
 C          2.3310864165       -1.3317726056       -0.6110640311
 C          2.3322671494       -1.9388630117        0.5893156464
 C          2.4942213171       -3.4147280482        0.8352489779
 C          3.9535425903       -3.8899099875        0.8650851952
 C          4.6535416824       -3.9281057918       -0.4939376953
 H          5.5849328946       -4.4813120752       -0.3584404070
 H          4.0404242641       -4.4886065435       -1.2001232842
 C          4.9801435705       -2.5459750150       -1.0763520686
 H          6.0066247960       -2.5412447658       -1.4495444610
 H          4.9226116184       -1.7948672267       -0.2852393704
 C          4.0759364372       -2.1153537216       -2.2312062440
 H          4.2203136973       -2.7869116297       -3.0803073060
 H          4.3712901996       -1.1100008824       -2.5413967152
 C          2.5816697144       -2.0824442923       -1.8840535401
 H          2.0520251241       -1.5587006209       -2.6837055014
 H          2.1876714395       -3.0960083794       -1.8104969468
 H          4.5147753513       -3.2469780567        1.5470215106
 H          3.9575611303       -4.8999362000        1.2812893564
 H          2.0437539670       -3.6161029609        1.8097887940
 H          1.9408282648       -3.9717074285        0.0784831815
 O          2.1612729049       -1.2594194722        1.7558934285
 C          1.9838712735        0.1143937301        1.7592412819
 O          1.8473355091        0.6125970536        2.8977757554
 H         -0.5079836634        0.8069293513        0.4837364381
 C         -0.6189902830        1.7113546990       -0.0970982732
 C          0.4410819862        2.6045436129       -0.1821369967
 C          0.2688515754        3.7687247523       -0.9203873628
 C         -0.9327796008        4.0184596262       -1.5610072256
 C         -1.9795714306        3.1190583553       -1.4854147945
 C         -1.8146150795        1.9465998280       -0.7541311789
 N         -2.8378981905        0.9856971291       -0.7095773491
 S         -2.8610491847       -0.2005821990        0.4813717913
 O         -2.8401952246        0.4013620235        1.7975206405
 O         -1.8337329681       -1.1727617695        0.2002273723
 C         -4.4639580768       -0.9133770965        0.1626493971
 C         -4.5880593718       -1.8220515898       -0.8714569915
 C         -5.8353924690       -2.3604488675       -1.1445349380
 C         -6.9322518873       -1.9828979121       -0.3839475047
 C         -6.7922319079       -1.0715335142        0.6517812518
 C         -5.5473969193       -0.5284195167        0.9293794246
 H         -5.3878059878        0.1759822214        1.7298545841
 H         -7.6457281996       -0.7827005224        1.2435791612
 H         -7.9016467045       -2.4043432425       -0.5979311151
 H         -5.9469421156       -3.0715336314       -1.9470666072
 H         -3.7048543487       -2.0906085116       -1.4276012282
 H         -3.7563442937        1.3598642016       -0.9015090508
 H         -2.9115003206        3.3115803962       -1.9940267250
 H         -1.0547552975        4.9279033154       -2.1295193506
 H          1.0760028962        4.4791014703       -0.9949070384
 C          1.7174398385        2.2845524589        0.5612850062
 H          1.5675677376        2.5533514052        1.6186177142
 C          2.9205963661        3.0378113915        0.0296763836
 C          3.2793781171        4.3851159803        0.5785217203
 C          4.1219689956        3.1918704227        0.9116922172
 H          5.1026188161        3.1086227319        0.4679602403
 H          4.0571651260        2.7800833159        1.9088571969
 H          2.6519718482        4.7917417876        1.3574845245
 H          3.6865489248        5.1243128270       -0.0948099666
 H          3.0930423940        2.8481870117       -1.0234609756
 O          2.0565130926        0.6927994915       -1.8144034963
