  62
        -98.93437545
 C         -2.4445605089       -0.0626884380       -0.4908665084
 C         -3.4499095188        0.7210230268        0.1284758080
 C         -4.6325527687       -0.0188661737        0.5966035515
 C         -4.6874940183       -1.3562746276        0.4734216753
 C         -5.8104286038       -2.2459392197        0.9333364282
 C         -6.9709682402       -2.3533935538       -0.0653456797
 C         -7.8522855739       -1.1084891935       -0.1751233447
 H         -8.7428233419       -1.3953307966       -0.7379806746
 H         -8.1796342857       -0.8076323655        0.8205589744
 C         -7.1846012762        0.0801442590       -0.8806653976
 H         -6.3148904205       -0.2708308157       -1.4410357670
 H         -7.8795425171        0.5105840954       -1.6052896668
 C         -6.7482823217        1.2087116043        0.0536999370
 H         -7.6272876200        1.6566274020        0.5224910968
 H         -6.2571170411        1.9796224128       -0.5455863717
 C         -5.7743654746        0.7748223864        1.1569398288
 H         -5.3586814745        1.6731642786        1.6198881124
 H         -6.3003896593        0.2000083381        1.9188160640
 H         -6.5636592473       -2.5997189622       -1.0486687081
 H         -7.5982551782       -3.1891455672        0.2531828647
 H         -5.3810634148       -3.2406626293        1.0709917212
 H         -6.1870161124       -1.8942246300        1.8942738075
 O         -3.6803396079       -2.0782124530       -0.0871712110
 C         -2.5566912349       -1.4519036624       -0.5968180536
 O         -1.7321724885       -2.2299018467       -1.1191801885
 O         -3.3861783320        1.9650896632        0.2953600117
 C         -1.1690109984        0.5249567117       -1.0721724700
 C         -0.0917434354        0.6082275866       -0.0209899156
 C         -0.3224668477        1.2300116626        1.2020168784
 C          0.6812186803        1.3009992607        2.1509004553
 C          1.9273468661        0.7509888561        1.9063558696
 C          2.1670526648        0.1241366377        0.6909838141
 C          1.1598641563        0.0626620452       -0.2648110103
 H          1.3455450934       -0.4361070225       -1.2067924921
 N          3.4224365943       -0.4612499903        0.4420478385
 S          4.7910914783        0.4513754994        0.8325129860
 O          5.0170828143        0.3532773843        2.2523054585
 O          4.6579087251        1.7911374958        0.3048779812
 C          6.0541973879       -0.4458898644       -0.0461199358
 C          6.4889524240        0.0177566734       -1.2730959458
 C          7.4540358544       -0.7039262656       -1.9579797891
 C          7.9616536931       -1.8717018885       -1.4087985100
 C          7.5145894113       -2.3243747798       -0.1761424657
 C          6.5511712795       -1.6071067260        0.5147598843
 H          6.1803511065       -1.9154837294        1.4782217302
 H          7.9134639938       -3.2317328521        0.2478417357
 H          8.7125056536       -2.4312822093       -1.9439080724
 H          7.8056702483       -0.3534409301       -2.9149770913
 H          6.0722055658        0.9348135343       -1.6578640183
 H          3.4912459389       -0.8204054804       -0.5007857974
 H          2.7170153688        0.8045960419        2.6382390494
 H          0.4917768996        1.7902820186        3.0948503783
 H         -1.2921837495        1.6625617575        1.3964299036
 H         -0.8361844909       -0.2068121692       -1.8255470324
 C         -1.3956352253        1.8434359930       -1.7999508488
 C         -0.8999367026        3.1663272770       -1.3079632215
 C         -0.2491771118        2.5205987492       -2.4917081426
 H         -0.4102817398        2.9440590014       -3.4714627073
 H          0.7357088206        2.1014409987       -2.3467306399
 H         -1.5344443413        4.0253420475       -1.4636370460
 H         -0.3506957969        3.1967749042       -0.3802193508
 H         -2.3484488964        1.8557668379       -2.3194779710
