  62
        -98.92731568
 C         -2.2934106297       -0.9325896201        0.4082364995
 C         -2.7757759995       -0.1203628801       -0.6453249906
 C         -3.7833854295        0.9039498400       -0.2878794808
 C         -4.1625292897        1.0300986401        0.9961851591
 C         -5.1915328397        1.9592788802        1.5836479289
 C         -6.6320719197        1.5056491202        1.2979954487
 C         -6.8889041295        1.0492067402       -0.1356775913
 H         -6.2158550795        0.2239077701       -0.3747657812
 H         -7.9091074595        0.6590276403       -0.1816325715
 C         -6.7564567493        2.1373248801       -1.1985064713
 H         -7.4531850793        2.9471364502       -0.9707601415
 H         -7.0598206892        1.6971767101       -2.1518542614
 C         -5.3579182992        2.7328622000       -1.3755097811
 H         -5.1332527093        3.4501163901       -0.5906921511
 H         -5.3600394890        3.2928903900       -2.3151867012
 C         -4.2375617093        1.7036054200       -1.4853952109
 H         -4.4986783492        0.9709246700       -2.2572591409
 H         -3.3372534392        2.2056727899       -1.8594330308
 H         -7.3074508997        2.3254904103        1.5485412286
 H         -6.8596815499        0.6668598203        1.9605497587
 H         -5.0271960296        2.9722415401        1.2285848489
 H         -5.0342191199        1.9563635102        2.6646197689
 O         -3.6437438499        0.2444977401        1.9847062292
 C         -2.7098616599       -0.7349367900        1.7262756294
 O         -2.3258701101       -1.3572632100        2.7401928895
 O         -2.4063528693       -0.2241755602       -1.8408032205
 C         -1.2631723298       -2.0368347402        0.1943272897
 C          0.0152378803       -1.4361239203       -0.3377257501
 C          0.3452361406       -1.2742037803       -1.6778390400
 C          1.5393359407       -0.6741514104       -2.0412026499
 C          2.4279326405       -0.2110365404       -1.0892561698
 C          2.1067245903       -0.3526504904        0.2540573302
 C          0.9160658502       -0.9651275303        0.6138917700
 H          0.6700678400       -1.0688677902        1.6640670800
 N          2.9886373202        0.1376409696        1.2348089103
 S          4.5917874402       -0.3596435305        1.1649182006
 O          4.7109700402       -1.6739733705        0.5769422907
 O          5.0932074300       -0.2114325905        2.5137608007
 C          5.3745040104        0.8500782994        0.1193257707
 C          5.2593726305        2.1826025294        0.4637931806
 C          5.8730334906        3.1348327994       -0.3342775993
 C          6.5902038308        2.7406211493       -1.4542315892
 C          6.6997072208        1.3984523292       -1.7840822491
 C          6.0870305306        0.4408098493       -0.9907947392
 H          6.1391705605       -0.6134105507       -1.2114155491
 H          7.2579532209        1.0940511292       -2.6547654390
 H          7.0665785110        3.4842464592       -2.0734526992
 H          5.7900920307        4.1795505794       -0.0811008594
 H          4.6958544103        2.4468219095        1.3431469205
 H          2.6337289000        0.0495440097        2.1763297503
 H          3.3550506606        0.2592786795       -1.3733849996
 H          1.7755727509       -0.5598274605       -3.0882427898
 H         -0.3388219193       -1.5826857603       -2.4471105201
 H         -1.0321349800       -2.3830811301        1.2139455698
 C         -1.8688928497       -3.2530093101       -0.4955976703
 C         -2.2853447095       -3.3447966702       -1.9315520504
 C         -1.1137021396       -4.1395243002       -1.4398838302
 H         -1.2290521497       -5.2082870102       -1.3357603901
 H         -0.1225009996       -3.8326374503       -1.7346509000
 H         -3.2045459895       -3.8726942001       -2.1445176005
 H         -2.1303532094       -2.4902564002       -2.5680152904
 H         -2.5315412199       -3.7622967601        0.2012313296
