  62
        -98.93708442
 C          2.5454287590       -0.0272696880        0.1615661865
 C          2.2974196997       -1.1275303405        1.0168491202
 C          1.7244726531       -2.3402798193        0.4087408465
 C          1.4720308575       -2.3548049565       -0.9130261331
 C          0.9233180043       -3.4379648759       -1.8190462086
 C          0.3272355068       -4.7136211560       -1.2320573376
 C         -1.0097015373       -4.5159442458       -0.5152907656
 H         -1.7795547196       -4.3333004665       -1.2690835857
 H         -1.2635978126       -5.4419862393        0.0050118587
 C         -1.0665720227       -3.3570444477        0.4774736070
 H         -2.0888293833       -3.2895181519        0.8620475989
 H         -0.8679792953       -2.4120397984       -0.0343231915
 C         -0.1355490078       -3.4741426413        1.6823311116
 H         -0.3550965346       -4.3930050144        2.2310546746
 H         -0.3543381656       -2.6263317315        2.3389126813
 C          1.3673462835       -3.4425731873        1.3640982577
 H          1.9039088765       -3.2283375587        2.2934970414
 H          1.7131626368       -4.4068687759        1.0000807547
 H          0.1535453633       -5.3931855313       -2.0707982660
 H          1.0491548105       -5.1969228181       -0.5802085824
 H          0.1727055009       -2.9446706240       -2.4450847835
 H          1.7497833634       -3.7123998705       -2.4841676195
 O          1.7561466305       -1.2816639717       -1.7052078387
 C          2.2087639266       -0.0784791476       -1.1916828347
 O          2.2873855060        0.8294101914       -2.0407763846
 O          2.5384507690       -1.0960677266        2.2557275610
 C          2.9476893294        1.2900337630        0.8073815787
 C          1.9009059990        2.3087063597        0.4303612393
 C          2.1580027945        3.5207592148       -0.1934501200
 C          1.1087837332        4.3375860249       -0.5822559009
 C         -0.2050465939        3.9545295870       -0.3855205416
 C         -0.4702739254        2.7466105542        0.2514510689
 C          0.5801809819        1.9587435607        0.6836814944
 H          0.3645010506        1.0225511134        1.1797583857
 N         -1.7860861324        2.2982066983        0.4706785503
 S         -2.0420144598        0.6263453860        0.3611132288
 O         -1.7735804886        0.0379552464        1.6494273087
 O         -1.3252772762        0.0770839220       -0.7671828313
 C         -3.7981845098        0.5936568133        0.0503228102
 C         -4.6686769033        0.6335376594        1.1228543063
 C         -6.0327891652        0.6474341562        0.8782584086
 C         -6.5010819096        0.6225746102       -0.4270440879
 C         -5.6154830059        0.5799072101       -1.4935250702
 C         -4.2500251442        0.5670445635       -1.2555652025
 H         -3.5232107115        0.5252240676       -2.0514583309
 H         -5.9816954789        0.5567746184       -2.5072445180
 H         -7.5630062277        0.6335072790       -0.6149760031
 H         -6.7241224540        0.6771027665        1.7048408740
 H         -4.2561296100        0.6428978910        2.1182093726
 H         -2.4688856717        2.8129207695       -0.0690929116
 H         -1.0184549312        4.5765852534       -0.7272110105
 H          1.3189342252        5.2750196269       -1.0748128911
 H          3.1741436395        3.8104688983       -0.4057792797
 H          2.8539821614        1.0946805594        1.8897123550
 C          4.3788846212        1.7427516905        0.5767568829
 C          5.4575075834        0.7489906213        0.2669363154
 C          5.0312110148        1.7402242204       -0.7719135582
 H          5.7064070034        2.5492278891       -1.0104962008
 H          4.4463961521        1.3940024729       -1.6085143986
 H          6.4219734701        0.8719493080        0.7364451023
 H          5.1590848496       -0.2817642205        0.1390080119
 H          4.6539375891        2.5540008607        1.2445087226
