  62
        -98.93747594
 C         -2.4307471602       -1.1111223900       -0.0028791999
 C         -3.4904279101       -0.7066691700        0.8461609103
 C         -4.5108971002        0.1815497800        0.2646215505
 C         -4.3840413604        0.5803123400       -1.0147474596
 C         -5.2736178605        1.4441931300       -1.8842941694
 C         -6.3910838404        2.2824303699       -1.2691279492
 C         -5.9135357803        3.4394250999       -0.3919106193
 H         -5.4466499604        4.1911506000       -1.0333216994
 H         -6.7880231502        3.8977858699        0.0749922508
 C         -4.9053630501        3.0719275799        0.6940139405
 H         -3.9886862702        2.6979994700        0.2331814204
 H         -4.6440677001        3.9877993099        1.2310082405
 C         -5.3941254600        2.0545913099        1.7229579606
 H         -4.6437986899        2.0029857299        2.5164805305
 H         -6.3285159799        2.4014826299        2.1684318807
 C         -5.6045872000        0.6259520299        1.1927565206
 H         -5.5783536499       -0.0576309001        2.0463252506
 H         -6.5774582301        0.5189316799        0.7190914608
 H         -7.0803634503        1.6466753399       -0.7212736091
 H         -6.9525346706        2.7117594399       -2.1034477592
 H         -4.5977625106        2.1012418800       -2.4408618995
 H         -5.7164204906        0.7645987400       -2.6208988294
 O         -3.3403673205        0.1704220100       -1.7926399197
 C         -2.3443768904       -0.6694492500       -1.3214757399
 O         -1.4720393805       -0.9363566100       -2.1707748400
 H          0.7086490296       -1.6272726600       -1.1571404503
 C          0.8689857898       -1.1452362900       -0.2053016504
 C         -0.0937021101       -1.2495011100        0.7874755598
 C          0.1226643101       -0.5925899300        1.9951629698
 C          1.2734818401        0.1456683800        2.2012093696
 C          2.2289524400        0.2517794400        1.2056255094
 C          2.0188306198       -0.3926957400       -0.0058737605
 N          2.9711616996       -0.2654412100       -1.0322605707
 S          4.5717077597       -0.6230705299       -0.6801398409
 O          5.1686347395       -0.9930146799       -1.9449981710
 O          4.6744262399       -1.5925001600        0.3862944891
 C          5.2554646397        0.9345316601       -0.1533423610
 C          5.8729318899        1.0346784801        1.0779640289
 C          6.4100940600        2.2538646001        1.4612789488
 C          6.3211041198        3.3451478401        0.6108018888
 C          5.6993209397        3.2275463001       -0.6235468711
 C          5.1618964996        2.0112402101       -1.0132920510
 H          4.6747808395        1.8771361001       -1.9648674809
 H          5.6319072995        4.0783916701       -1.2823458211
 H          6.7391696499        4.2930201001        0.9110287088
 H          6.8945373101        2.3470971901        2.4199812787
 H          5.9137941600        0.1604081401        1.7079272689
 H          2.6865678495       -0.6964364400       -1.9000160406
 H          3.1274267400        0.8276463200        1.3571827893
 H          1.4285810603        0.6453612200        3.1453060696
 H         -0.6284970998       -0.6631810700        2.7692499999
 C         -1.3691415901       -2.0292800500        0.5798463200
 H         -1.7508481100       -2.3164826900        1.5688610800
 C         -1.1734514802       -3.2848494900       -0.2451414101
 C         -0.4126275901       -4.4327022200        0.3459811798
 C         -1.8937083901       -4.5391879600        0.1444917300
 H         -2.2630244503       -5.1847299300       -0.6382598299
 H         -2.5314597600       -4.5002711000        1.0153276201
 H          0.2388057198       -5.0061815700       -0.2958782203
 H         -0.0431083500       -4.3178364700        1.3539054698
 H         -1.0571303104       -3.0942875000       -1.3047614901
 O         -3.5886974099       -1.0833668400        2.0443155103
