  62
        -98.94237967
 C         -1.3811273605       -1.3211538300       -0.0479440904
 C         -2.4255065407       -0.9166300905        0.8136119996
 C         -3.0103124811        0.4050169193        0.5465523898
 C         -2.5103891414        1.1523181997       -0.4547983200
 C         -3.0352695418        2.4917301996       -0.8878968698
 C         -4.3286321617        2.3156490993       -1.7091442699
 C         -5.5781166120        2.8977254787       -1.0483107798
 H         -5.5581622023        3.9849889087       -1.1473864396
 H         -6.4436318518        2.5309728285       -1.6040156100
 C         -5.7613130219        2.5661519884        0.4357039701
 H         -5.1263768322        3.2173099185        1.0385570103
 H         -6.7936502920        2.8130943379        0.6924500401
 C         -5.4886854814        1.1103727484        0.8356137198
 H         -5.6156831111        0.4459280285       -0.0191889103
 H         -6.2322113914        0.8179576280        1.5798419397
 C         -4.1055463814        0.8669030287        1.4682153998
 H         -3.7786422717        1.7683679488        1.9953090300
 H         -4.1973113411        0.0698898386        2.2125840197
 H         -4.4747541613        1.2489374093       -1.8908572701
 H         -4.2062706018        2.7875821195       -2.6850839098
 H         -2.2586372419        2.9623124400       -1.4914224896
 H         -3.2144879421        3.1127495594       -0.0128253497
 O         -1.5000337012        0.7327389002       -1.2572663600
 C         -0.8971160507       -0.4975418296       -1.0625840002
 O          0.0380683894       -0.7433455491       -1.8496806102
 O         -2.8437594305       -1.6273446309        1.7696115094
 C         -0.6941077300       -2.6539985198        0.1867160993
 C          0.7858898999       -2.4376929393        0.3881064995
 C          1.7616271702       -3.2667935888       -0.1512424506
 C          3.1043146601       -2.9929718184        0.0466505195
 C          3.5024494597       -1.8789876584        0.7627325797
 C          2.5332583093       -1.0508374088        1.3164437298
 C          1.1918181995       -1.3517193193        1.1534672897
 H          0.4531745092       -0.6974709496        1.5935245998
 N          2.8775431589        0.1134240612        2.0367330201
 S          2.4065030884        1.5775559411        1.3667612704
 O          2.9245671180        2.5849590111        2.2683655206
 O          0.9830539984        1.5876996106        1.1494284603
 C          3.2973099284        1.6594961117       -0.1771331696
 C          2.8315539988        0.9561049118       -1.2698189997
 C          3.5792577088        0.9735282623       -2.4381236297
 C          4.7676379486        1.6846769027       -2.4942602695
 C          5.2203479983        2.3860702027       -1.3865567393
 C          4.4825866882        2.3698222022       -0.2145138194
 H          4.7914260279        2.9015506321        0.6711062208
 H          6.1432653281        2.9414442430       -1.4320198091
 H          5.3422123586        1.6926051931       -3.4070516594
 H          3.2186537991        0.4259178223       -3.2941080198
 H          1.8999282490        0.4139565614       -1.2122054899
 H          3.8588108588        0.1654326615        2.2764830302
 H          4.5491764096       -1.6484009180        0.8922071398
 H          3.8504019304       -3.6451429780       -0.3808142406
 H          1.4704104506       -4.1248995788       -0.7346876808
 H         -1.1204242299       -3.0454594501        1.1227488792
 C         -1.0122144296       -3.6196675197       -0.9366591809
 C         -1.0892096591       -5.0934160797       -0.6736261612
 C         -2.3405089494       -4.3131195901       -0.9381686311
 H         -2.8490786393       -4.4521134101       -1.8803425212
 H         -3.0040302695       -4.1094988705       -0.1102928611
 H         -0.7411169688       -5.7723708795       -1.4374070913
 H         -0.9090783190       -5.4317006399        0.3355320088
 H         -0.6198520397       -3.2870479293       -1.8913409008
