  62
        -98.94066145
 C         -1.8614174706       -1.5759898137       -0.0714215254
 C         -1.6080441192       -0.4420077341       -0.8756331634
 C         -2.7160582066        0.5193598823       -1.0172793342
 C         -3.8871545902        0.2632744273       -0.4094437106
 C         -5.1013068218        1.1484604370       -0.3712522487
 C         -5.0910793721        2.0180221271        0.8976878119
 C         -4.3215950909        3.3327566696        0.7733209788
 H         -4.8841179864        4.0172693895        0.1349304174
 H         -4.2776496874        3.7770947256        1.7703071981
 C         -2.8962507962        3.2151474826        0.2254914054
 H         -2.3498369652        4.1091100497        0.5329154773
 H         -2.3975797747        2.3563204331        0.6793743290
 C         -2.8451144016        3.1064796000       -1.3062507153
 H         -2.1285940509        3.8321898196       -1.6969496419
 H         -3.8177139854        3.3860443652       -1.7113403935
 C         -2.4349084596        1.7318199849       -1.8620439088
 H         -2.9014876872        1.5900041971       -2.8424062952
 H         -1.3529178144        1.7103080837       -2.0267307691
 H         -6.1219753166        2.2547692392        1.1685807181
 H         -4.6697672127        1.4193367189        1.7094001923
 H         -5.1598973210        1.7599693005       -1.2669325808
 H         -5.9710726903        0.4893556229       -0.3353459394
 O         -4.0998824688       -0.8581470271        0.3320156969
 C         -3.1002042178       -1.7908740428        0.5343982732
 O         -3.4285625342       -2.7510995263        1.2596940629
 H          1.8783019378       -2.0285628501       -0.4989718304
 C          1.6091366021       -1.7171882719        0.4961134012
 C          0.3310038756       -1.9274264789        0.9882329767
 C          0.0291185446       -1.4894054950        2.2766900853
 C          0.9814020519       -0.8594045796        3.0527200334
 C          2.2547175530       -0.6420758387        2.5540896117
 C          2.5659538414       -1.0714376823        1.2706604262
 N          3.8591092171       -0.8773819958        0.7459348701
 S          4.0330256812        0.0143883179       -0.6640879352
 O          3.4082200780       -0.6747330417       -1.7612026793
 O          5.4594108580        0.2348621418       -0.7785219407
 C          3.2212145396        1.5616967667       -0.3047821325
 C          3.9892132053        2.6009881778        0.1854535231
 C          3.3674583530        3.7847815382        0.5461779905
 C          1.9911156502        3.9044660385        0.4234015948
 C          1.2359800686        2.8508765312       -0.0668560064
 C          1.8513219271        1.6640512970       -0.4367046590
 H          1.2811614742        0.8352839710       -0.8276039005
 H          0.1649898670        2.9367628723       -0.1635052328
 H          1.5038329855        4.8233137880        0.7095491198
 H          3.9542485306        4.6066036664        0.9239903023
 H          5.0560531618        2.4637323012        0.2603138109
 H          4.5205570518       -0.5354016492        1.4298277704
 H          3.0026438232       -0.1478714537        3.1557084931
 H          0.7323409026       -0.5306683525        4.0502676884
 H         -0.9692279118       -1.6558662831        2.6587623016
 C         -0.7644918582       -2.5948785200        0.1910574585
 H         -1.2194859060       -3.3678800575        0.8268606633
 C         -0.2884410284       -3.2423619121       -1.0907185271
 C          0.3952716364       -4.5742310064       -1.0350373362
 C         -0.9918427873       -4.4660615025       -1.5920583645
 H         -1.1320295942       -4.5802481931       -2.6565676639
 H         -1.8120049298       -4.8468742195       -1.0004823042
 H          1.2112051939       -4.7623957173       -1.7164496094
 H          0.5174655605       -5.0326134694       -0.0651505041
 H          0.0528183724       -2.5281462803       -1.8306871275
 O         -0.5061489450       -0.2270822618       -1.4455643364
