  62
        -98.94413293
 C          1.8192411552       -1.1241188052        0.0785349248
 C          2.2645865529        0.0011651391        0.8128552036
 C          3.7230462732        0.1586784904        0.9176710143
 C          4.5293058685       -0.7522458682        0.3428009017
 C          6.0283162989       -0.6815056722        0.3255478882
 C          6.5348700282        0.0615148583       -0.9187166902
 C          5.8381903826        1.3996278100       -1.1660294438
 H          6.2967086323        1.8463256345       -2.0508885732
 H          4.7880179180        1.2172055100       -1.4054050951
 C          5.9238712562        2.3862760791        0.0067982958
 H          6.1775560232        3.3740235074       -0.3837918059
 H          6.7264003705        2.0897081809        0.6831320587
 C          4.6253166730        2.5417627615        0.8006498390
 H          4.7293916726        3.4100021436        1.4569925995
 H          3.7977783886        2.7472561295        0.1165797822
 C          4.2351346771        1.3476285297        1.6807645077
 H          5.0781875171        1.0663894635        2.3153095275
 H          3.4105434210        1.6664623088        2.3254116652
 H          6.3729765334       -0.5749519742       -1.7916462401
 H          7.6088963671        0.2231323642       -0.8105900974
 H          6.3732328154       -0.1792557629        1.2271972623
 H          6.4206941712       -1.6997139240        0.3146867727
 O          4.0628361485       -1.8289136199       -0.3398686314
 C          2.7025469783       -2.0362604315       -0.4990667311
 O          2.4100970539       -3.0490734135       -1.1660639995
 H         -1.7731486579        0.2345092618        0.7412954345
 C         -1.3659898397        0.5174104985       -0.2145815198
 C         -0.3048067223       -0.1814195668       -0.7666108791
 C          0.2058441737        0.2363088218       -1.9941370432
 C         -0.3195368460        1.3366817841       -2.6412847931
 C         -1.3730294600        2.0397055308       -2.0828627601
 C         -1.8924656918        1.6293834162       -0.8610973750
 N         -2.9494283941        2.3334921253       -0.2753711648
 S         -4.0318581072        1.6290091049        0.7698229058
 O         -5.1745007929        2.5183163819        0.7444981977
 O         -3.4376516159        1.4145356186        2.0654042671
 C         -4.4835265215        0.0600601017        0.0470925393
 C         -4.6611790480       -1.0241265174        0.8818783189
 C         -5.0443233399       -2.2394212195        0.3373605743
 C         -5.2422448833       -2.3492633246       -1.0298723488
 C         -5.0643097901       -1.2502175217       -1.8559656566
 C         -4.6854938068       -0.0317969301       -1.3157008081
 H         -4.5453205253        0.8361316389       -1.9386758052
 H         -5.2190858768       -1.3384928146       -2.9192358145
 H         -5.5368111393       -3.2964194808       -1.4535510471
 H         -5.1834217588       -3.0942295741        0.9796820750
 H         -4.4901809279       -0.8942687839        1.9385522828
 H         -3.3550628925        3.0710698918       -0.8300934624
 H         -1.7803724212        2.9062848015       -2.5807888106
 H          0.0915711729        1.6513737887       -3.5886618667
 H          1.0315903547       -0.3128515394       -2.4265703726
 C          0.3312517513       -1.3750289569       -0.0987300830
 H          0.2485315208       -2.2328420766       -0.7817649452
 C         -0.2969778199       -1.7490330206        1.2263624209
 C         -1.5285455541       -2.6010497062        1.2593646152
 C         -0.2105955901       -3.1721000855        1.6868032566
 H         -0.0460607701       -3.3656924974        2.7361978447
 H          0.2830017037       -3.8744175135        1.0307618891
 H         -1.9413441143       -2.9212372487        0.3147083526
 H         -2.2687070759       -2.4001409417        2.0185339457
 H         -0.1909231199       -0.9736764876        1.9769208068
 O          1.4898088733        0.8330180484        1.3537380479
