  62
        -98.94395755
 C         -1.3812608379       -1.5876113262       -0.6250682293
 C         -2.6098383932       -1.5511635224        0.0829978122
 C         -3.5822609428       -0.5356553604       -0.3364571151
 C         -3.2727118508        0.2837777275       -1.3573299771
 C         -4.1363252030        1.4086321421       -1.8484026482
 C         -3.7863542424        2.7218268559       -1.1349187867
 C         -3.7215024901        2.6008435250        0.3878295160
 H         -2.8720927438        1.9672209630        0.6565179328
 H         -3.5059056221        3.5967240497        0.7819845636
 C         -5.0000630299        2.0556834750        1.0401600790
 H         -5.2311585222        2.6657958955        1.9158933373
 H         -5.8374555469        2.1515612668        0.3479180120
 C         -4.9020536835        0.6063345241        1.5202317182
 H         -4.0054538063        0.4851415099        2.1339557907
 H         -5.7663302410        0.4002644144        2.1573710148
 C         -4.8788744265       -0.4609805557        0.4189681464
 H         -5.7158578159       -0.3037312266       -0.2643757219
 H         -5.0027412038       -1.4364238384        0.8985668307
 H         -2.8075552295        3.0584115627       -1.4858196460
 H         -4.5268984983        3.4747705815       -1.4120504935
 H         -3.9669840837        1.5317879655       -2.9195527187
 H         -5.1822708313        1.1584664346       -1.6810279590
 O         -2.1025965798        0.2031963210       -2.0343984972
 C         -1.1101736808       -0.7008817688       -1.6685899238
 O         -0.0807747334       -0.6089677856       -2.3615574052
 O         -2.8792707474       -2.3426142073        1.0276530208
 C         -0.3566303764       -2.5929256372       -0.1305087372
 C          0.4374943676       -2.0150391212        1.0164849807
 C          0.7924483460       -2.7956837718        2.1107465786
 C          1.5151783939       -2.2484881855        3.1563549844
 C          1.8865088740       -0.9165007304        3.1372017178
 C          1.5199592841       -0.1208781922        2.0555061920
 C          0.8143890052       -0.6802638693        1.0003353381
 H          0.5252377170       -0.0553756074        0.1719346175
 N          1.8277938726        1.2413129361        2.0444292761
 S          1.8725842355        2.2010996076        0.6825619034
 O          2.3619291280        3.4685363320        1.1840575088
 O          0.5839937282        2.2314113657        0.0392543538
 C          3.1251105316        1.4807350986       -0.3621560787
 C          4.4384991240        1.6592682610        0.0332854043
 C          5.4540095936        1.1130309527       -0.7321735631
 C          5.1414552741        0.4001484844       -1.8806442194
 C          3.8210995292        0.2340007012       -2.2646965309
 C          2.7966456284        0.7743593676       -1.5001161881
 H          1.7637940716        0.6399953407       -1.7830901433
 H          3.5695491368       -0.3168903748       -3.1566897492
 H          5.9300732398       -0.0257255897       -2.4806524249
 H          6.4819031283        1.2449824397       -0.4351206869
 H          4.6382331610        2.2389045024        0.9197869052
 H          2.4323275481        1.5684045973        2.7813402531
 H          2.4363679028       -0.4861409306        3.9598406263
 H          1.7856560210       -2.8637143614        4.0009268972
 H          0.4786894829       -3.8282983602        2.1504906122
 H         -0.9499172727       -3.4285071466        0.2759070678
 C          0.5311780088       -3.1559865208       -1.2303753327
 C          1.9652743719       -2.7653318050       -1.4019154267
 C          1.6204114550       -4.1355774720       -0.9063946972
 H          1.7661809554       -4.9765271555       -1.5671871516
 H          1.8093817880       -4.3513890712        0.1335995980
 H          2.3339831203       -2.6507744171       -2.4089491824
 H          2.3844344549       -2.0561714404       -0.7045263419
 H         -0.0282551786       -3.3367678752       -2.1423811854
