  62
        -98.94171846
 C          2.7556536409        0.0032590780        0.1431849996
 C          2.0355518312        0.7687022983        1.0921786696
 C          1.8028977921        2.1777906085        0.7440859697
 C          2.2623035425        2.6615973283       -0.4226043302
 C          2.0500410534        4.0619059085       -0.9185051500
 C          0.7894198035        4.1726167894       -1.7868828602
 C         -0.4630892869        3.5548420600       -1.1639063304
 H         -0.3546952875        2.4679331199       -1.1201682105
 H         -1.2933423367        3.7572948206       -1.8451620005
 C         -0.8124323568        4.0830440401        0.2343627596
 H         -1.8888796567        4.2630338707        0.2766658095
 H         -0.3160884362        5.0390797198        0.4072245998
 C         -0.4736021275        3.1169431597        1.3714532396
 H         -0.8385874680        2.1188808000        1.1133028794
 H         -0.9998069074        3.4460174699        2.2718117595
 C          1.0157826024        3.0035977288        1.7220869797
 H          1.0961894520        2.4888703487        2.6839037597
 H          1.4495450130        3.9999646886        1.8275708899
 H          0.9778960033        3.6686577194       -2.7378568802
 H          0.6092770442        5.2299020795       -1.9926355801
 H          2.9163226536        4.3462855681       -1.5187400299
 H          1.9753853937        4.7341691585       -0.0657864900
 O          2.9625959421        1.9046376280       -1.3056232302
 C          3.2006711813        0.5653464279       -1.0580361403
 O          3.8283250511       -0.0162595724       -1.9668255703
 O          1.5919131708        0.3232626684        2.1863797595
 C          3.0245421800       -1.4894834422        0.2894928494
 C          1.8080084296       -2.2475428514       -0.1874609908
 C          1.8770771092       -3.1568356313       -1.2358692609
 C          0.7297831489       -3.7566214006       -1.7277774111
 C         -0.5120173010       -3.4404857400       -1.2045637912
 C         -0.5856199206       -2.5411651300       -0.1512904411
 C          0.5661934797       -1.9758705708        0.3679936191
 H          0.4912666100       -1.2725119608        1.1839255492
 N         -1.8617521204       -2.1207102593        0.3246927188
 S         -2.4048808995       -0.8763269689       -0.6995442511
 O         -2.6574220197       -1.4596743986       -1.9935486312
 O         -1.4797990589        0.2354185306       -0.6722673109
 C         -3.9501397194       -0.4154124081        0.0610358088
 C         -4.9886863699       -1.3265768975        0.0319900285
 C         -6.1917308498       -0.9879650568        0.6298550784
 C         -6.3350558491        0.2484028332        1.2427217486
 C         -5.2834712486        1.1516299526        1.2630100488
 C         -4.0761467287        0.8183999019        0.6684090489
 H         -3.2325711983        1.4904542814        0.6567183091
 H         -5.3968038081        2.1127631026        1.7381138589
 H         -7.2730671190        0.5107575637        1.7059496285
 H         -7.0123885102       -1.6868415064        0.6157440783
 H         -4.8328746404       -2.2707334275       -0.4624205015
 H         -1.7671260603       -1.7137646795        1.2489957589
 H         -1.4185064712       -3.8534950694       -1.6154918813
 H          0.8009712786       -4.4565550906       -2.5465727112
 H          2.8351692191       -3.3686318318       -1.6881995108
 H          3.8511044799       -1.7152991726       -0.3977816505
 C          3.4322393096       -1.9116082726        1.6865405794
 C          4.1901064988       -3.1917147730        1.8633673394
 C          4.8800343596       -1.8772598735        2.0686652296
 H          5.1394276296       -1.5783189637        3.0729558797
 H          5.5861470998       -1.5489597638        1.3196149597
 H          3.9755447984       -3.8004094130        2.7281048793
 H          4.4320794986       -3.7569626531        0.9760737993
 H          2.7110738496       -1.6415281522        2.4460294994
