  62
        -98.94297869
 C          2.6778853831        1.1948130154        0.1215813730
 C          2.7106216902        0.1887519454       -0.8735704688
 C          3.9210298408       -0.6451769357       -0.8969608400
 C          4.9086443654       -0.4002788910       -0.0164372890
 C          6.1680377790       -1.2072945519        0.1059146515
 C          6.0002144952       -2.3463005605        1.1214698654
 C          4.7359999959       -3.1799834290        0.9118940029
 H          4.7397654168       -3.9704955797        1.6655050291
 H          3.8603822421       -2.5560456477        1.1056123311
 C          4.6115758639       -3.8052649265       -0.4845112935
 H          5.5854367604       -3.8118690325       -0.9754136638
 H          4.2965575177       -4.8451167982       -0.3753283296
 C          3.5892369150       -3.1238022954       -1.3961036162
 H          2.6347632403       -3.0294272367       -0.8718551630
 H          3.4240511680       -3.7688206417       -2.2631899736
 C          3.9858144527       -1.7395750838       -1.9247295383
 H          4.9788136028       -1.7877699490       -2.3761775207
 H          3.2671194042       -1.4625534979       -2.7015016012
 H          6.8781505824       -2.9922614821        1.0636375660
 H          5.9624993782       -1.9133610600        2.1238444580
 H          6.4308766944       -1.6117004912       -0.8695441401
 H          6.9685153651       -0.5467503948        0.4433203280
 O          4.8498606670        0.5925875628        0.9082575083
 C          3.7321013181        1.4041591685        1.0098335840
 O          3.7954023013        2.2597175742        1.9162796572
 O          1.7803190036       -0.0035096367       -1.6990206062
 C          1.4632857799        2.0972522474        0.2403748585
 C          0.2213281106        1.2679409433        0.4612904166
 C          0.2299657887        0.3004291268        1.4630687407
 C         -0.8855032230       -0.4766946838        1.7060137052
 C         -2.0381574197       -0.3063687676        0.9584409700
 C         -2.0647329384        0.6657803450       -0.0306424782
 C         -0.9409366062        1.4485067264       -0.2705585410
 H         -0.9788179500        2.1983132276       -1.0454613935
 N         -3.2268725719        0.8432824127       -0.7966775356
 S         -4.7168552047        0.9016604699       -0.0316031564
 O         -5.5707769806        1.6459538967       -0.9313435835
 O         -4.6012460552        1.4131318073        1.3142591076
 C         -5.2525675516       -0.7960759226        0.0017023331
 C         -5.2911455462       -1.4909389573       -1.1912144154
 C         -5.7177588868       -2.8092263343       -1.1840820326
 C         -6.0991475416       -3.4064026470        0.0082884726
 C         -6.0581356591       -2.6942646124        1.1970612973
 C         -5.6315130283       -1.3752636291        1.1967634673
 H         -5.5789639614       -0.7847598038        2.0977466487
 H         -6.3555923209       -3.1601088074        2.1228313577
 H         -6.4307823569       -4.4327598520        0.0108157402
 H         -5.7507889654       -3.3663590555       -2.1065320556
 H         -4.9894722991       -0.9912951992       -2.0966278731
 H         -3.1488295548        1.5548650220       -1.5083285195
 H         -2.9103482977       -0.9126138273        1.1402091074
 H         -0.8587549348       -1.2259036147        2.4829598454
 H          1.1301231318        0.1657575761        2.0482231791
 H          1.6250868184        2.7098048835        1.1397153258
 C          1.3826584276        3.0141030043       -0.9626132138
 C          0.7381131118        4.3618697983       -0.8451291293
 C          2.2262916356        4.2517271912       -0.9835423144
 H          2.6822038275        4.5499150344       -1.9156987893
 H          2.8393582935        4.4472739496       -0.1156751768
 H          0.1742050206        4.7413228911       -1.6843752747
 H          0.3378290121        4.6433409024        0.1174230568
 H          1.2715314801        2.4701583075       -1.8938547910
