  62
        -98.94455557
 C         -2.6172039694       -1.2393696265        0.1320173612
 C         -2.6494548076       -0.2918461318       -0.9196477052
 C         -3.4705385608        0.9054682109       -0.6828353466
 C         -4.1362694512        1.0387218737        0.4778508453
 C         -4.9524749173        2.2347915548        0.8709187729
 C         -4.1014529759        3.2611380601        1.6318235711
 C         -2.7786263086        3.6021377384        0.9447741812
 H         -2.2817494865        4.3610474238        1.5532863818
 H         -2.1313809579        2.7211712098        0.9480511281
 C         -2.9235672974        4.1176462670       -0.4938608443
 H         -2.2692802805        4.9825989013       -0.6220236708
 H         -3.9464516515        4.4549895204       -0.6658699925
 C         -2.5355070570        3.1051140030       -1.5731421777
 H         -1.5451968021        2.6966446616       -1.3505076719
 H         -2.4609566838        3.6365349303       -2.5259735212
 C         -3.5112748668        1.9382672960       -1.7739265819
 H         -4.5241740565        2.3248757852       -1.9021495250
 H         -3.2225074016        1.4184565796       -2.6921115591
 H         -4.6904900371        4.1711164806        1.7592521298
 H         -3.8767476258        2.8591576575        2.6223639321
 H         -5.3763463866        2.6892975502       -0.0222781750
 H         -5.7642756007        1.8989826413        1.5182047842
 O         -4.0990438548        0.1012228726        1.4575149951
 C         -3.3329056542       -1.0416482770        1.3182045963
 O         -3.3759548532       -1.8058674263        2.3025888053
 H         -0.0260529139       -1.1831919887       -1.4962582240
 C          0.4192177326       -1.4734271541       -0.5563577260
 C         -0.3406846510       -2.1748039319        0.3690497857
 C          0.2373787620       -2.5043003398        1.5897171505
 C          1.5421138604       -2.1400170108        1.8726983780
 C          2.2929354547       -1.4335576769        0.9498850331
 C          1.7198080889       -1.0898880697       -0.2671275439
 N          2.4665422858       -0.3437994007       -1.2019187026
 S          3.0346089602        1.1455314981       -0.6623661486
 O          2.1947823594        1.6848620615        0.3834421832
 O          3.1850602746        1.9567317688       -1.8508254090
 C          4.6496264415        0.7637577048       -0.0162386711
 C          4.9605969408        1.0724067553        1.2933863208
 C          6.2255602835        0.7666384268        1.7714800920
 C          7.1516831642        0.1617024423        0.9356324030
 C          6.8243280019       -0.1393649808       -0.3782605485
 C          5.5621884793        0.1646214576       -0.8625987189
 H          5.2678128049       -0.0485895930       -1.8765687926
 H          7.5473627856       -0.6096135540       -1.0250500064
 H          8.1344702006       -0.0764868031        1.3106845420
 H          6.4816663870        1.0001489154        2.7924705685
 H          4.2052619193        1.5364632707        1.9075466319
 H          1.9774086943       -0.2217703705       -2.0784404713
 H          3.3061935092       -1.1376306935        1.1681421187
 H          1.9774716288       -2.4037996721        2.8245122976
 H         -0.3535331438       -3.0305251073        2.3256262502
 C         -1.7842198481       -2.5134186734        0.0822030220
 H         -2.1520287993       -3.1384234986        0.9065025591
 C         -1.9450769958       -3.2854492915       -1.2120131978
 C         -1.5581356771       -4.7324179009       -1.2429915162
 C         -3.0033773840       -4.3411513515       -1.3062140777
 H         -3.5314333665       -4.4578637823       -2.2406664910
 H         -3.6177989074       -4.5122379970       -0.4341230707
 H         -1.1922932990       -5.1707035539       -0.3268126507
 H         -1.0911439623       -5.1214242593       -2.1346535007
 H         -1.7586373577       -2.6936607631       -2.0979796419
 O         -2.0350373037       -0.4140011889       -2.0143208109
