  62
        -98.94621506
 C          2.8207330804        0.8909243104        0.2013836114
 C          2.4606444908        0.1626780404       -0.9600426188
 C          2.8362882111       -1.2564693395       -0.9568186089
 C          3.5673780510       -1.7538531394        0.0572984712
 C          4.0026402113       -3.1851558593        0.2146468511
 C          2.9483985913       -4.0685948296        0.8973052808
 C          1.7193208416       -4.3935170998        0.0461095306
 H          2.0406110718       -4.8101061096       -0.9089792094
 H          1.1604008916       -5.1711189400        0.5704057504
 C          0.7842384514       -3.2010623000       -0.2056809395
 H         -0.2553732486       -3.4936773302       -0.0331842897
 H          1.0056644411       -2.4040805100        0.5100424907
 C          0.8601002615       -2.6267888698       -1.6208576994
 H          0.1577905013       -1.7901003000       -1.6845108594
 H          0.5340670418       -3.3844799098       -2.3371380495
 C          2.2560060514       -2.1297634495       -2.0267881691
 H          2.1558309615       -1.5297973694       -2.9341684290
 H          2.9107624817       -2.9760159893       -2.2332951791
 H          2.6308496211       -3.5807433198        1.8221298908
 H          3.4336033515       -5.0091775696        1.1674004808
 H          4.2580151215       -3.6036740092       -0.7584179889
 H          4.8987458112       -3.1747713592        0.8386437713
 O          4.0027037606       -0.9854151494        1.0919335714
 C          3.5790541503        0.3300173705        1.2264437214
 O          3.9402795200        0.8816917604        2.2862529416
 O          1.8371237508        0.6616413704       -1.9312026988
 C          2.2830654601        2.2974438003        0.3914460514
 C          0.7784316601        2.2655384900        0.2466045111
 C          0.0548844700        3.2357431499       -0.4337720489
 C         -1.3172001900        3.1161729896       -0.5774684991
 C         -1.9963095698        2.0314371594       -0.0541585094
 C         -1.2840303797        1.0611112795        0.6381606007
 C          0.0845162502        1.1964142497        0.8001992709
 H          0.6326326303        0.4323532598        1.3402738709
 N         -1.9614012396       -0.0580992107        1.1630629804
 S         -2.7985053092       -1.0068892808        0.0496495502
 O         -2.8153420090       -2.3370178909        0.6190508900
 O         -2.2520501690       -0.8785787505       -1.2797231197
 C         -4.4451772793       -0.3313645212        0.0999357399
 C         -5.1138342395       -0.3313285814        1.3084682098
 C         -6.3943313497        0.1952306583        1.3644397597
 C         -6.9816070496        0.7082765683        0.2172763196
 C         -6.2980991194        0.6983456285       -0.9889677503
 C         -5.0163641392        0.1736466588       -1.0514242301
 H         -4.4432688791        0.1489912691       -1.9647223500
 H         -6.7560839493        1.0972650985       -1.8797892703
 H         -7.9781771997        1.1181370180        0.2634890895
 H         -6.9292091398        0.2047356780        2.3004219196
 H         -4.6221660596       -0.7431338814        2.1739748599
 H         -1.3664500595       -0.6502271607        1.7257818104
 H         -3.0609491898        1.9225453692       -0.1832204696
 H         -1.8638889900        3.8743958695       -1.1170228191
 H          0.5683835999        4.0781244700       -0.8676481887
 H          2.5307120698        2.5873443602        1.4233809515
 C          2.9568941200        3.2621205305       -0.5619937184
 C          3.1587876396        4.6953814805       -0.1735623382
 C          4.3294705598        3.7618999908       -0.2288569481
 H          5.0454457700        3.8745303310       -1.0289750579
 H          4.7642955898        3.4255014408        0.7013425320
 H          3.0748543896        5.4532807106       -0.9378068181
 H          2.8058524594        5.0054615103        0.7983857418
 H          2.7439069402        3.0336003806       -1.6000367584
