  62
        -98.94905713
 C         -1.9352848864       -0.8766948564       -0.1948831301
 C         -2.6302791657        0.0452625590        0.6229836574
 C         -2.7316546370        1.4135265643        0.1024306090
 C         -2.1710993278        1.7201751136       -1.0813571557
 C         -2.1796258062        3.0703121470       -1.7445696113
 C         -1.0916699808        4.0209375550       -1.2264194464
 C         -1.3509030093        4.6134581807        0.1593579594
 H         -0.6477566318        5.4384560668        0.2905887796
 H         -2.3569105081        5.0337770871        0.1938929450
 C         -1.1642548572        3.6276804741        1.3209462391
 H         -0.6016596569        4.1127921562        2.1227173817
 H         -0.5592162721        2.7765169062        0.9988897293
 C         -2.4635949731        3.1099831820        1.9386190490
 H         -2.9910520322        3.9334818050        2.4266725160
 H         -2.2006523180        2.3766728995        2.7057413911
 C         -3.4232075132        2.4405733072        0.9470146272
 H         -4.2003681631        1.9278345617        1.5201229691
 H         -3.8946746983        3.1942710191        0.3159961053
 H         -1.0119878818        4.8446563166       -1.9396637682
 H         -0.1348717850        3.4925372416       -1.2182776905
 H         -3.1584730267        3.5349359880       -1.6224501855
 H         -2.0076226733        2.8953226125       -2.8086372630
 O         -1.5233307115        0.8013646632       -1.8452572168
 C         -1.3786582162       -0.5140287286       -1.4202058003
 O         -0.7500095555       -1.2403953197       -2.2119990777
 O         -3.1463469667       -0.2629246610        1.7316327107
 C         -1.7473647404       -2.3030949849        0.2869071777
 C         -0.2745807275       -2.6159476849        0.3990220378
 C          0.3009418848       -3.7768389358       -0.1006843949
 C          1.6606628128       -3.9981944928        0.0340377331
 C          2.4708844359       -3.0716179373        0.6629213012
 C          1.9037180888       -1.9116365526        1.1800524497
 C          0.5405702962       -1.6984162427        1.0522154708
 H          0.1083374518       -0.7963911841        1.4613506226
 N          2.6987632256       -0.9670843671        1.8557702577
 S          2.6085620445        0.6555403872        1.4655312414
 O          3.7027252314        1.2611748307        2.1929949545
 O          1.2921195527        1.1642826849        1.7471159138
 C          2.9405191174        0.7220545918       -0.2824131119
 C          4.2495102892        0.7511068910       -0.7230612383
 C          4.4950478147        0.7352375364       -2.0863413498
 C          3.4352694698        0.6780791325       -2.9800524231
 C          2.1273395244        0.6489228399       -2.5216599198
 C          1.8780762228        0.6723549455       -1.1594186787
 H          0.8743799074        0.6478590759       -0.7664571674
 H          1.2935228570        0.5892028700       -3.2032510027
 H          3.6274431553        0.6570433709       -4.0411820359
 H          5.5099768051        0.7623228528       -2.4491344775
 H          5.0425788075        0.8020029301        0.0054033989
 H          3.6664304002       -1.2418836232        1.9500840997
 H          3.5320623122       -3.2429166573        0.7617484710
 H          2.0959279827       -4.9024450134       -0.3631630807
 H         -0.3139581065       -4.5075016042       -0.5994783903
 H         -2.1797895307       -2.3294785911        1.2987159758
 C         -2.5113759278       -3.2689878509       -0.5944049600
 C         -3.0342267020       -4.5553286015       -0.0302810570
 C         -3.9818720972       -3.4446549555       -0.3669659131
 H         -4.6269857091       -3.5561100413       -1.2255050968
 H         -4.4275552471       -2.8857382429        0.4431481903
 H         -3.0328657003       -5.4330045573       -0.6588450782
 H         -2.8430538370       -4.7581826641        1.0126654766
 H         -2.1621109128       -3.2610827788       -1.6207114400
