  62
        -98.93889210
 C          1.9960883537        1.3434545966        0.0021543129
 C          2.6112958283        0.7390062102        1.1216251905
 C          3.8233334019       -0.0553601531        0.8566253386
 C          4.2588221003       -0.1764924417       -0.4096939164
 C          5.4351299739       -0.9750687064       -0.8996301166
 C          4.9937359062       -2.3804583209       -1.3421399442
 C          4.9589081909       -3.4261258887       -0.2280303665
 H          4.5062990874       -4.3293249858       -0.6439663551
 H          5.9816344781       -3.6762742627        0.0616559105
 C          4.1815413914       -3.0199258852        1.0267821965
 H          3.9113723848       -3.9318974435        1.5630653141
 H          3.2505061863       -2.5281974935        0.7379904493
 C          4.9859266395       -2.1095894393        1.9669445630
 H          6.0314124234       -2.1166572617        1.6595212930
 H          4.9582010978       -2.5207272762        2.9782164699
 C          4.4860094527       -0.6604520150        2.0643234731
 H          3.7348873266       -0.5878016753        2.8573276669
 H          5.3189187981       -0.0159616301        2.3644714346
 H          4.0034217156       -2.2930566809       -1.7970240613
 H          5.6772021294       -2.7349684281       -2.1163043558
 H          5.8289689399       -0.4454635191       -1.7695649453
 H          6.2098965062       -1.0267546865       -0.1404407346
 O          3.6190213557        0.3995189134       -1.4642291071
 C          2.4771978076        1.1647168471       -1.2948231153
 O          1.9993635745        1.6174733024       -2.3511364978
 O          2.1602897994        0.8482346525        2.2951184546
 C          0.7498662169        2.1847887283        0.2127195487
 C         -0.4220567234        1.5492616767       -0.4942307808
 C         -1.2545528544        2.2297243193       -1.3719332120
 C         -2.3025392362        1.5729302506       -1.9952246927
 C         -2.5508694858        0.2358866364       -1.7491257808
 C         -1.7378617135       -0.4487721798       -0.8533125400
 C         -0.6890707619        0.2102685627       -0.2317384212
 H         -0.0537046606       -0.3252391722        0.4629889136
 N         -1.9954964089       -1.8014914329       -0.5768764873
 S         -3.5849579874       -2.2696604458       -0.3446338739
 O         -3.5156539708       -3.4225449569        0.5258386018
 O         -4.2193414735       -2.4855009509       -1.6213177848
 C         -4.3659871012       -0.8996837085        0.4907537992
 C         -5.4519332336       -0.2720263280       -0.0845314917
 C         -6.0271262371        0.8060814152        0.5690527045
 C         -5.5061303909        1.2378647173        1.7786302365
 C         -4.4168292289        0.5941871025        2.3460086606
 C         -3.8394873400       -0.4856927568        1.6983598537
 H         -2.9940518384       -1.0085695491        2.1166150490
 H         -4.0121672725        0.9309157256        3.2870342671
 H         -5.9506540749        2.0804398276        2.2842403486
 H         -6.8754452331        1.3070550697        0.1314292775
 H         -5.8219464351       -0.6383835176       -1.0282909475
 H         -1.3841876009       -2.2061702793        0.1163447052
 H         -3.3504492066       -0.2924363895       -2.2424729040
 H         -2.9330273919        2.1103459490       -2.6867442489
 H         -1.0768238940        3.2715774901       -1.5797361923
 H          0.5543972276        2.1472262402        1.2946342566
 C          1.0011892352        3.6229469340       -0.1860257078
 C          0.2178588340        4.7280886002        0.4551324442
 C          1.6648462755        4.5401820112        0.7956032877
 H          2.3817490646        5.2580543474        0.4262273323
 H          1.9164001208        4.1330745491        1.7641834611
 H         -0.0588641023        5.5805127421       -0.1464516451
 H         -0.5163149728        4.4538685735        1.1972145928
 H          1.2768213195        3.7249906581       -1.2293977380
