  62
        -98.93835915
 C          1.7882068533        0.0220540414        0.1398622164
 C          2.9025572270        0.8980388702        0.1217870014
 C          4.1458908282        0.3324964982       -0.4268065667
 C          4.1645040086       -0.9213840334       -0.9105722869
 C          5.3456871349       -1.6175616397       -1.5306058318
 C          6.2992771287       -2.2584015702       -0.5129443575
 C          7.1553278168       -1.2749134637        0.2861123953
 H          7.9237874426       -1.8596281593        0.7957918283
 H          7.6642165856       -0.5970603193       -0.3999046555
 C          6.3779524631       -0.4638222669        1.3321977616
 H          5.4162243908       -0.9449213952        1.5248281904
 H          6.9293211324       -0.4623547121        2.2752543165
 C          6.1325527381        0.9955004883        0.9485330323
 H          7.0870172655        1.5226203932        0.8832141673
 H          5.5430574713        1.4640990084        1.7407678323
 C          5.3797680994        1.1824939783       -0.3750964492
 H          5.0667374052        2.2270793313       -0.4461830568
 H          6.0348457532        0.9552112579       -1.2158310973
 H          5.7143895594       -2.8741361652        0.1742226292
 H          6.9678411382       -2.9218864579       -1.0663578797
 H          4.9406606971       -2.4070830790       -2.1672663018
 H          5.8979642361       -0.9158338718       -2.1563514917
 O          3.0631096568       -1.7190722429       -0.9084289799
 C          1.8669979310       -1.2772854572       -0.3698846001
 O          0.9516173747       -2.1247701137       -0.3996445577
 O          2.8853465192        2.0878218848        0.5260189455
 C          0.4287850178        0.4100185470        0.6958510951
 C         -0.4386537324        1.0665982326       -0.3468390927
 C          0.0525566750        2.0557138574       -1.1923720399
 C         -0.7775017625        2.6553591208       -2.1219549820
 C         -2.1127428735        2.3020289509       -2.2080985603
 C         -2.6140435337        1.3170473403       -1.3657878672
 C         -1.7697405556        0.6932670411       -0.4581574306
 H         -2.1582597587       -0.0895760147        0.1747097011
 N         -3.9608158658        0.9336302338       -1.4205188959
 S         -4.7799360071        0.5967049203        0.0015647718
 O         -6.1732949132        0.8167167436       -0.3205318051
 O         -4.2523577455        1.3594907938        1.1077600444
 C         -4.5153162063       -1.1434034292        0.2618618411
 C         -4.0277755815       -1.5899313173        1.4737914774
 C         -3.8434840085       -2.9506322121        1.6618745215
 C         -4.1502545869       -3.8357868894        0.6402359488
 C         -4.6425030137       -3.3713517491       -0.5702031728
 C         -4.8292048055       -2.0124901066       -0.7641587283
 H         -5.2118966374       -1.6141530777       -1.6889617288
 H         -4.8784323669       -4.0640683533       -1.3619314483
 H         -4.0030342440       -4.8939032527        0.7887836900
 H         -3.4585831145       -3.3131498469        2.6016286547
 H         -3.7956380065       -0.8672169985        2.2407000102
 H         -4.5280709735        1.4572784492       -2.0711086739
 H         -2.7628323139        2.7840986386       -2.9224870559
 H         -0.3843577685        3.4190508004       -2.7761839284
 H          1.0851079223        2.3576873405       -1.1063088394
 H         -0.0541135097       -0.5432609864        0.9653145536
 C          0.5166466894        1.2394076678        1.9705758427
 C          0.2237897180        2.7048719764        2.0289274824
 C         -0.7317584804        1.7295207938        2.6442877189
 H         -0.7899094838        1.6738602405        3.7212424540
 H         -1.6779444531        1.5729252177        2.1454305350
 H          0.8400648890        3.3135619894        2.6728490287
 H         -0.0720916180        3.2019293190        1.1185870291
 H          1.3092318212        0.8855630169        2.6229859845
