  62
        -98.94322423
 C          2.3804790404        0.4538638402        0.1186867466
 C          3.4436935543        0.3639020123        1.0490746217
 C          4.4486378859       -0.6722329592        0.7784890267
 C          4.2939352174       -1.4740435927       -0.2912116441
 C          5.2688819822       -2.5331856678       -0.7154313293
 C          6.3039721207       -1.9722661601       -1.7008034143
 C          6.9543622776       -0.6682744085       -1.2386472080
 H          7.6864255362       -0.3831736233       -1.9974115486
 H          6.1967594201        0.1183338377       -1.2119986841
 C          7.6436687323       -0.7531758258        0.1303081090
 H          7.8238124518       -1.7968407011        0.3903982991
 H          8.6172935158       -0.2631765525        0.0631739703
 C          6.8802579642       -0.0723698757        1.2678275197
 H          7.5475141254       -0.0020404832        2.1310305687
 H          6.6175248401        0.9470564818        0.9740372956
 C          5.6036456226       -0.7837631300        1.7337037771
 H          5.2743327089       -0.3022128727        2.6591749503
 H          5.8244986419       -1.8306735496        1.9514048226
 H          7.0745262938       -2.7288777793       -1.8595627367
 H          5.8074216853       -1.7869588930       -2.6560563365
 H          5.7690469228       -2.9331934087        0.1643888016
 H          4.7135015850       -3.3357812043       -1.2034729950
 O          3.2431899129       -1.3774564758       -1.1448887053
 C          2.2650482897       -0.4092401433       -0.9708621509
 O          1.3699388478       -0.4236988499       -1.8365450964
 O          3.5456285297        1.1133983343        2.0574916212
 C          1.3180961741        1.5191407049        0.3254886240
 C         -0.0230832838        0.8629593559        0.5400404958
 C         -0.1791746893        0.0111950014        1.6312713583
 C         -1.3845434011       -0.6189692231        1.8698059729
 C         -2.4623114313       -0.4182127539        1.0240531523
 C         -2.3202541748        0.4322032030       -0.0625509113
 C         -1.1080581505        1.0719955262       -0.2949345220
 H         -1.0148579888        1.7272059476       -1.1468775873
 N         -3.4044850084        0.6317093680       -0.9319333735
 S         -4.9124399284        0.9835375305       -0.2894249728
 O         -5.6109770427        1.6977776420       -1.3357868048
 O         -4.7998280688        1.6575650812        0.9832061961
 C         -5.6736892549       -0.6112127461       -0.0710919473
 C         -5.7920179893       -1.4333530981       -1.1744935848
 C         -6.3906261160       -2.6738437052       -1.0234674473
 C         -6.8608332095       -3.0680765551        0.2204433285
 C         -6.7379929436       -2.2296525378        1.3177466040
 C         -6.1392686071       -0.9877266518        1.1734315246
 H         -6.0192220979       -0.3044397125        1.9991936446
 H         -7.1050162284       -2.5375751658        2.2836747039
 H         -7.3263039607       -4.0343124545        0.3349188824
 H         -6.4881769959       -3.3284726927       -1.8745925503
 H         -5.4179319891       -1.0890150134       -2.1242790186
 H         -3.1938920860        1.2248197844       -1.7211439737
 H         -3.4044696362       -0.9106106377        1.2008801723
 H         -1.4880719811       -1.2761772621        2.7199516199
 H          0.6637683112       -0.1490029057        2.2897830778
 H          1.5969107619        2.0301319858        1.2586107368
 C          1.3427193197        2.5256816905       -0.8048984757
 C          0.7808024679        3.8994464953       -0.5961900146
 C          2.2623558255        3.7043271040       -0.7086503474
 H          2.7613496042        4.0435151441       -1.6040943953
 H          2.8606511958        3.7965282145        0.1859449576
 H          0.2630919039        4.3769211834       -1.4146958136
 H          0.3702000070        4.1280249962        0.3758384124
 H          1.2242512107        2.0661595939       -1.7798656373
