  62
        -98.94393613
 C          1.6945020042        1.4485692801        0.5168929487
 C          2.5945534986        0.9960097945       -0.4792064998
 C          3.4506557837       -0.1396129138       -0.0975008013
 C          3.2856094803       -0.7251128854        1.1017489122
 C          4.0634697853       -1.9099072593        1.5960193557
 C          3.3783588176       -3.2335576365        1.2294283540
 C          2.9615571600       -3.3266987035       -0.2379498159
 H          2.5147471261       -4.3124548509       -0.3842196610
 H          2.1885768722       -2.5813893031       -0.4366579029
 C          4.1087753100       -3.1336636676       -1.2388983424
 H          4.0324464603       -3.8999612434       -2.0130584855
 H          5.0676799679       -3.2744901661       -0.7386836569
 C          4.1014999638       -1.7791376828       -1.9493642373
 H          4.8085471459       -1.8279653729       -2.7817463953
 H          3.1114302111       -1.5902450544       -2.3714029124
 C          4.4958130135       -0.5735117069       -1.0871456112
 H          5.4410932333       -0.7781278931       -0.5798563240
 H          4.6438393004        0.2776767288       -1.7580006291
 H          2.4859015203       -3.3469325523        1.8495120776
 H          4.0602389117       -4.0513603665        1.4695410098
 H          5.0646786672       -1.8790785333        1.1700434436
 H          4.1405984119       -1.8393921848        2.6825092994
 O          2.3473453162       -0.3194159809        1.9962264250
 C          1.5436848913        0.7748712613        1.7324866566
 O          0.7390275419        1.0492130780        2.6465837655
 H         -1.5479914951        2.0091215319        1.4701321810
 C         -1.5882872302        1.8475312779        0.4011762074
 C         -0.4756148614        2.1504345660       -0.3710681456
 C         -0.5238310659        1.9011840876       -1.7381649991
 C         -1.6659973498        1.3701091390       -2.3111573742
 C         -2.7733142172        1.0655303311       -1.5379784579
 C         -2.7272010396        1.2995090271       -0.1700925280
 N         -3.8290155756        0.9514159920        0.6340588606
 S         -4.4369854690       -0.5941883138        0.4248839494
 O         -5.3747083490       -0.5955911808       -0.6703711423
 O         -4.9773949013       -0.9743698877        1.7113008732
 C         -3.0326925504       -1.6148361195        0.0049806857
 C         -3.0799633204       -2.3937914633       -1.1332123656
 C         -1.9851610359       -3.1791669029       -1.4557607909
 C         -0.8626787118       -3.1654563896       -0.6428766336
 C         -0.8289368554       -2.3747697493        0.4954146532
 C         -1.9238586086       -1.5943513187        0.8280801686
 H         -1.9119828498       -0.9746372369        1.7111573105
 H          0.0467077136       -2.3513629039        1.1258956780
 H         -0.0078866734       -3.7722184799       -0.8962541787
 H         -2.0074045265       -3.7950276783       -2.3402421392
 H         -3.9689561731       -2.3654022159       -1.7420879930
 H         -3.6858760977        1.1458449920        1.6148948305
 H         -3.6665614457        0.6422637243       -1.9687178221
 H         -1.6928179382        1.1819703305       -3.3735672222
 H          0.3487517387        2.0979615136       -2.3407537757
 C          0.7717517107        2.6441219134        0.3196898108
 H          0.4842314644        2.9660960416        1.3299237341
 C          1.4199184512        3.8168470558       -0.3835035492
 C          0.7718253360        5.1635827834       -0.2793720184
 C          2.0608670515        4.8945430195        0.4360182130
 H          2.9644405341        5.3543453538        0.0649285781
 H          2.0355840257        4.7911016612        1.5114054414
 H         -0.1289179790        5.2413610720        0.3111362327
 H          0.7875394903        5.8108842635       -1.1425729523
 H          1.8998155064        3.5589718004       -1.3170812642
 O          2.7056596023        1.5021836541       -1.6251043494
