  62
        -98.94878229
 C          0.9358772891        1.2949482305        0.0420635153
 C          1.9090363509        1.0496388870        1.0375705609
 C          2.6390287876       -0.2193842942        0.9238292611
 C          2.3247592434       -1.0702436485       -0.0700938906
 C          3.0143987806       -2.3793904038       -0.3231376901
 C          4.1888240781       -2.2115016244       -1.2970662413
 C          5.1345313871       -1.0684307604       -0.9289940573
 H          5.9416112899       -1.0635324056       -1.6646356817
 H          4.6021630141       -0.1198094903       -1.0277762770
 C          5.7307445569       -1.1677120933        0.4820414793
 H          5.6301198504       -2.1868823161        0.8570959904
 H          6.7987540896       -0.9463433680        0.4279903043
 C          5.1263923574       -0.1943994694        1.4960603287
 H          5.1407717575        0.8184101106        1.0854370832
 H          5.7594999298       -0.1947830133        2.3874575519
 C          3.6954772338       -0.5070290108        1.9530982085
 H          3.4678527725        0.1419191851        2.8043257770
 H          3.6328648328       -1.5438177367        2.2915238696
 H          3.7867668175       -2.0154360091       -2.2934161484
 H          4.7454751402       -3.1497617557       -1.3317975075
 H          3.3672226406       -2.7851385307        0.6232704483
 H          2.2905803125       -3.0728625628       -0.7539277883
 O          1.3674653039       -0.8107686676       -0.9956271831
 C          0.6467804915        0.3738059267       -0.9650493384
 O         -0.2029234989        0.4843788864       -1.8674229192
 O          2.1543155383        1.8543725298        1.9787989972
 C          0.1361700860        2.5811021060        0.0928729192
 C         -1.3456642068        2.3026592256        0.1613398195
 C         -2.2908680310        3.1607690013       -0.3895419933
 C         -3.6412443194        2.8764524023       -0.2891257567
 C         -4.0784813548        1.7275884864        0.3442594671
 C         -3.1412428911        0.8647364151        0.9008228661
 C         -1.7914749583        1.1659367194        0.8219445687
 H         -1.0796330171        0.4908754865        1.2738457161
 N         -3.5415695698       -0.3155520568        1.5485379774
 S         -2.6383070157       -1.7079778162        1.4017900554
 O         -3.5503103162       -2.7599549764        1.8061564049
 O         -1.4268578065       -1.6117697136        2.1799562159
 C         -2.2417709965       -1.9303195056       -0.3235543326
 C         -3.1020241622       -1.4865545465       -1.3067243234
 C         -2.7874962679       -1.7351070342       -2.6324373048
 C         -1.6343546332       -2.4321303689       -2.9522211394
 C         -0.7874300857       -2.8824259165       -1.9535142416
 C         -1.0910428650       -2.6276936730       -0.6268090041
 H         -0.4483696425       -2.9402794013        0.1821186236
 H          0.1146212847       -3.4176101955       -2.2045033099
 H         -1.3884703023       -2.6185200930       -3.9857459029
 H         -3.4404903172       -1.3769754807       -3.4119538959
 H         -3.9942907930       -0.9431151136       -1.0425456494
 H         -4.5315225845       -0.5112612466        1.5169429553
 H         -5.1312478806        1.4989438741        0.4115310037
 H         -4.3632846743        3.5528865171       -0.7201994222
 H         -1.9676945195        4.0534883251       -0.8994843580
 H          0.4348687379        3.0765057215        1.0298643438
 C          0.5128172858        3.4771026664       -1.0717077414
 C          0.5556561610        4.9665935631       -0.9097397966
 C          1.8305415746        4.1897807767       -1.0353246041
 H          2.4003292455        4.2705282538       -1.9488341355
 H          2.4385655724        4.0566000961       -0.1521096698
 H          0.2516204814        5.5847126952       -1.7411203086
 H          0.3080133935        5.3734757217        0.0591836912
 H          0.1887394644        3.0726197241       -2.0240971222
