  62
        -98.93435564
 C          1.6740049203        1.1817509754       -0.7210668695
 C          1.8054240368        0.2517702323        0.3367734835
 C          3.1840184099       -0.1021078618        0.7439671988
 C          4.2211240098        0.4942088910        0.1290143043
 C          5.6946184616        0.2697341828        0.3438663087
 C          6.1935331838       -1.0412665166       -0.2839228605
 C          5.2996288341       -2.2528358836       -0.0343156491
 H          5.7078254995       -3.0893770419       -0.6076078134
 H          4.3017339625       -2.0482686823       -0.4260029792
 C          5.1932691278       -2.6928241992        1.4239078477
 H          6.1922141820       -2.9180030719        1.8039959596
 H          4.6154420411       -3.6203450234        1.4406215310
 C          4.5218054710       -1.6997702115        2.3756137387
 H          5.2030021640       -0.9010795204        2.6567860206
 H          4.2844048004       -2.2414238332        3.2958900220
 C          3.2092677691       -1.1155817924        1.8629547976
 H          2.6887461117       -0.6364193798        2.7008868489
 H          2.5515431163       -1.9334637471        1.5476864492
 H          7.1980491807       -1.2425124160        0.0923624967
 H          6.2619286711       -0.8940132036       -1.3646915550
 H          5.9281286362        0.3043099969        1.4038424945
 H          6.2107925292        1.1037788270       -0.1370319225
 O          4.0435420536        1.4182838291       -0.8596040507
 C          2.7898140259        1.7894157751       -1.3005188622
 O          2.7957913599        2.6621402291       -2.1925515174
 O          0.8315047123       -0.2808803819        0.9275758212
 C          0.3154862418        1.6310641273       -1.2314791939
 C         -0.5908942386        1.9505289032       -0.0692732910
 C         -0.2430286326        2.9973909147        0.7808514879
 C         -1.0351005926        3.3182233360        1.8656388290
 C         -2.1964567801        2.6093692238        2.1191611141
 C         -2.5505017620        1.5614097245        1.2785164184
 C         -1.7496930876        1.2386250433        0.1917326862
 H         -2.0309652322        0.4130309253       -0.4392635759
 N         -3.6985413032        0.8014471613        1.5316482051
 S         -4.5688118828        0.0947125912        0.2998620708
 O         -4.6236162031        0.9391842575       -0.8718315625
 O         -5.8473025425       -0.2268542534        0.8994828639
 C         -3.7158500137       -1.4218319135       -0.0805090468
 C         -3.8341624114       -1.9327895771       -1.3582164571
 C         -3.2166884903       -3.1359403761       -1.6611716263
 C         -2.4928614881       -3.8036575021       -0.6853435516
 C         -2.3834629023       -3.2766748063        0.5919989466
 C         -3.0034602441       -2.0771574092        0.9032335097
 H         -2.9258359790       -1.6397917786        1.8843767233
 H         -1.8131005148       -3.7930875235        1.3471349188
 H         -2.0081002644       -4.7373082148       -0.9236878545
 H         -3.2990909246       -3.5457120708       -2.6555014466
 H         -4.3945546623       -1.3735621845       -2.0907519044
 H         -4.2775945110        1.1133062478        2.2961016392
 H         -2.8178329674        2.8582855309        2.9659770105
 H         -0.7507967968        4.1301436183        2.5182597494
 H          0.6654603443        3.5505631116        0.5820156077
 H          0.5133930093        2.5735863589       -1.7691683105
 C         -0.3176342678        0.6829949218       -2.2388599917
 C          0.5327916097       -0.1097916534       -3.1848649734
 C         -0.2361760892       -0.8067687667       -2.1048846823
 H         -1.1006837018       -1.3912245683       -2.3844176981
 H          0.3007593745       -1.2041935800       -1.2588148074
 H          0.2011308932       -0.2157773109       -4.2067385251
 H          1.6049100965       -0.0249265504       -3.0804853292
 H         -1.2427384789        1.0851765817       -2.6427928602
