  62
        -98.93372499
 C         -1.5574538167       -1.5109391187       -0.2485659810
 C         -0.6598943891       -2.0177002371       -1.2192282311
 C          0.6051538942       -2.5933977433       -0.7270548982
 C          0.8168732330       -2.6761782343        0.5995007005
 C          1.9691112758       -3.2480767888        1.3995775645
 C          3.2553469383       -3.6822258440        0.7039650264
 C          4.1074755716       -2.5286945913        0.1691004260
 H          4.5876545018       -2.0346842121        1.0172316795
 H          4.8944417328       -2.9423232274       -0.4645551767
 C          3.3538599149       -1.4526461280       -0.6094471355
 H          2.5814789231       -1.0121420361        0.0236526279
 H          4.0563397172       -0.6491584607       -0.8497528827
 C          2.7152140314       -1.9049087497       -1.9206609245
 H          2.2772479679       -1.0179853145       -2.3903590503
 H          3.4836492380       -2.2956882383       -2.5916698401
 C          1.6061253571       -2.9593751805       -1.7839505954
 H          1.0561134799       -2.9932920531       -2.7293842518
 H          2.0233266524       -3.9486013520       -1.6130560798
 H          3.8527771188       -4.2125048854        1.4502133829
 H          3.0307370488       -4.3974032813       -0.0820055629
 H          2.2115853383       -2.5013319408        2.1621370994
 H          1.5542518712       -4.1106192122        1.9323581616
 O         -0.1124133470       -2.2403851893        1.4994199085
 C         -1.2796054238       -1.5921592644        1.1151878528
 O         -1.9483878925       -1.1584606324        2.0676455775
 O         -0.9060106848       -1.9895702238       -2.4557102065
 C         -2.7911205858       -0.7597066254       -0.7377747477
 C         -2.6386689908        0.6619343320       -0.2530367233
 C         -3.2962442924        1.2668720150        0.8104335967
 C         -2.9680956993        2.5559195496        1.1986765886
 C         -1.9596832674        3.2600281528        0.5689847826
 C         -1.2822169494        2.6635598105       -0.4886583054
 C         -1.6457071276        1.3938058424       -0.9034996218
 H         -1.1087019377        0.9445901954       -1.7273136608
 N         -0.2263763414        3.3280770590       -1.1441595754
 S          1.2563865324        2.5610650313       -1.2767978465
 O          2.1584467844        3.5934884901       -1.7389939542
 O          1.1406296475        1.3949872517       -2.1113040601
 C          1.6849728442        2.1034364570        0.3923629755
 C          2.5504425652        2.9081612005        1.1073642708
 C          2.8349950593        2.5848309463        2.4241495115
 C          2.2377361913        1.4775456804        3.0078529452
 C          1.3657409583        0.6832258050        2.2795960042
 C          1.0903720594        0.9929561790        0.9569146216
 H          0.4212694820        0.3870716116        0.3646558263
 H          0.8855210328       -0.1731922362        2.7280342022
 H          2.4501370776        1.2293843276        4.0358018597
 H          3.5148912322        3.1984653637        2.9928339328
 H          2.9882905810        3.7604520091        0.6133569285
 H         -0.0866551281        4.2783669915       -0.8298372212
 H         -1.6923783815        4.2544277840        0.8928793432
 H         -3.4952120517        3.0078929030        2.0251302669
 H         -4.0482790769        0.7380137468        1.3665684992
 H         -2.6638922086       -0.7271164997       -1.8323864362
 C         -4.0664913247       -1.5546879494       -0.5124017800
 C         -4.7830952949       -1.7314620335        0.7906333876
 C         -5.4202013227       -0.9417458018       -0.3138030389
 H         -6.2563815379       -1.3835816744       -0.8353387642
 H         -5.4834208835        0.1303148563       -0.2194927729
 H         -5.1794323359       -2.7138775046        1.0057141824
 H         -4.3918013224       -1.2346593568        1.6624221186
 H         -4.0407887697       -2.4419743695       -1.1418778865
