  62
        -98.94570702
 C         -0.9290130821       -1.1654983894       -0.2668143229
 C         -1.9358327829       -1.1852506997        0.7346298071
 C         -2.8356842439       -0.0272306800        0.7836558708
 C         -2.6652617083        0.9701818974       -0.1025573195
 C         -3.5631961947        2.1662322372       -0.2278786798
 C         -4.7026270102        1.9014238206       -1.2225452406
 C         -5.4443308086        0.5868856263       -0.9805828545
 H         -6.2439295230        0.5232157401       -1.7219286820
 H         -4.7642521286       -0.2466562228       -1.1705601120
 C         -6.0395206073        0.4437466164        0.4271353570
 H         -6.1029528877        1.4223558477        0.9041673541
 H         -7.0581563179        0.0598568364        0.3395179170
 C         -5.2777991465       -0.5175226204        1.3413317647
 H         -5.8941757772       -0.7078419355        2.2240334891
 H         -5.1353144502       -1.4731307808        0.8304823109
 C         -3.9107635802       -0.0261063004        1.8338692140
 H         -4.0153269329        0.9662396622        2.2763650423
 H         -3.5715063150       -0.7167781265        2.6110930245
 H         -5.4077693147        2.7330101936       -1.1694654838
 H         -4.2829459387        1.8756852491       -2.2308669124
 H         -3.9730157558        2.4109579314        0.7499967881
 H         -2.9716126157        3.0077630144       -0.5894201459
 O         -1.6779295436        0.9686026640       -1.0305532268
 C         -0.7765546134       -0.0822354751       -1.1327036080
 O          0.0769988868        0.0871622329       -2.0251794060
 O         -2.0800272795       -2.1390761274        1.5451966268
 C         -0.0151635161       -2.3789339716       -0.3245044702
 C          1.2399391601       -2.1316918774        0.4768468885
 C          1.4925022091       -2.8642972844        1.6311655250
 C          2.6299638351       -2.6267968509        2.3815590262
 C          3.5267847845       -1.6454734624        2.0021810934
 C          3.2801541392       -0.9032005233        0.8509738208
 C          2.1477821296       -1.1550487962        0.0894360180
 H          1.9700901232       -0.5767900717       -0.8039077077
 N          4.1705347241        0.1040972715        0.4623152249
 S          3.7173416218        1.3844288976       -0.4989742669
 O          3.6274607928        0.9696600060       -1.8754375628
 O          4.7246719111        2.3909806384       -0.2236432325
 C          2.1457068453        1.9924031758        0.0905625184
 C          1.7865574629        1.8542773394        1.4161746886
 C          0.5922795217        2.4092527356        1.8475923157
 C         -0.2075855937        3.1092889361        0.9590311366
 C          0.1721942502        3.2481621520       -0.3663025150
 C          1.3559089884        2.6799920874       -0.8075097514
 H          1.6727969159        2.7421065558       -1.8361319969
 H         -0.4502566988        3.7867193725       -1.0629821321
 H         -1.1332451423        3.5444581406        1.3016766070
 H          0.2901816077        2.2934607683        2.8762197108
 H          2.4219071241        1.3137309898        2.0986802571
 H          4.8785946123        0.3544942261        1.1357444769
 H          4.4111374934       -1.4493549456        2.5887789536
 H          2.8158887628       -3.2039288007        3.2743535692
 H          0.7801909566       -3.6125049177        1.9455522636
 H         -0.5745486613       -3.1807144915        0.1773610268
 C          0.3159126109       -2.8390972706       -1.7294703103
 C          0.7155923060       -4.2667827892       -1.9470457731
 C         -0.6162358059       -3.7786970113       -2.4311630540
 H         -0.7692471996       -3.6541784759       -3.4926595747
 H         -1.5000825877       -4.0975074069       -1.8976823486
 H          1.4820686187       -4.4800645732       -2.6762372973
 H          0.7327945306       -4.9190457985       -1.0869761743
 H          0.8040298094       -2.0833456634       -2.3310868479
