  62
        -98.93641790
 C          1.8382402908        0.7194372884        0.1540344389
 C          2.9341041545        0.4755953045        1.0191333927
 C          4.0601433934       -0.3170019103        0.4900577662
 C          3.9855964730       -0.7768224360       -0.7723132639
 C          5.0125861295       -1.5640064434       -1.5416675130
 C          6.1829975373       -0.6937386971       -2.0280569556
 C          6.7198104171        0.2966239615       -0.9978437902
 H          7.4613056959        0.9257374012       -1.4973751858
 H          5.9083841452        0.9496961804       -0.6714986213
 C          7.3877515723       -0.3316767779        0.2228986762
 H          7.7952534374        0.4841036300        0.8255597325
 H          8.2251992866       -0.9509774133       -0.1063050313
 C          6.4822619457       -1.1777811796        1.1203409854
 H          6.2987310248       -2.1552288567        0.6822003929
 H          7.0237054162       -1.3541440147        2.0544615095
 C          5.1623334901       -0.5149694197        1.5023402448
 H          4.7098551464       -1.0867040376        2.3218178526
 H          5.3669387867        0.4760547820        1.9232495678
 H          5.8400597344       -0.1203678457       -2.8928142374
 H          6.9883546060       -1.3519629146       -2.3582371610
 H          5.3702823026       -2.3958797250       -0.9420640453
 H          4.5018553244       -1.9785957502       -2.4137362183
 O          2.9081827977       -0.5292084311       -1.5677109832
 C          1.8144679962        0.2082418130       -1.1433720859
 O          0.9215675783        0.3136594087       -2.0056704694
 H         -0.5757778881       -0.4906032018       -0.5069426301
 C         -0.9637070237       -0.3093530613        0.4847070647
 C         -0.4111756577        0.7033925223        1.2572221826
 C         -0.9266491716        0.9243680458        2.5288296058
 C         -1.9659831024        0.1487720712        3.0137079778
 C         -2.5151104735       -0.8578041188        2.2400048343
 C         -2.0080623331       -1.0850362909        0.9667799133
 N         -2.5667716029       -2.0989372314        0.1611712938
 S         -4.2074885130       -1.9769683208       -0.1633836573
 O         -4.9463124259       -2.2973199938        1.0319022041
 O         -4.4406286178       -2.8296511987       -1.3061723248
 C         -4.4577804564       -0.2663852869       -0.5975573740
 C         -4.8131244425        0.6410441098        0.3804558432
 C         -4.9261157418        1.9796195331        0.0403749028
 C         -4.6861856278        2.3850806598       -1.2632496316
 C         -4.3367516063        1.4601112815       -2.2352757388
 C         -4.2128690036        0.1216556004       -1.8998663376
 H         -3.9414042574       -0.6279073506       -2.6261807972
 H         -4.1503235379        1.7766984619       -3.2488245987
 H         -4.7698591093        3.4279714768       -1.5240018965
 H         -5.1970715176        2.7014521540        0.7936526024
 H         -4.9997068657        0.2852417415        1.3800188421
 H         -2.0607740508       -2.2310145798       -0.7035677206
 H         -3.3280310377       -1.4688932455        2.5976892024
 H         -2.3520938180        0.3283711195        4.0053945173
 H         -0.4981708906        1.7022473599        3.1434982955
 C          0.7036812694        1.5593281552        0.7141198970
 H          1.1524968769        2.0927021324        1.5668510105
 C          0.2062589089        2.6152049391       -0.2649780626
 C         -1.1009452262        2.5337852203       -0.9879903180
 C         -0.9222134649        3.5271198845        0.1178247879
 H         -0.8468900546        4.5746701082       -0.1301622578
 H         -1.4258604727        3.3254910967        1.0509915376
 H         -1.1279133364        2.8840616751       -2.0081705364
 H         -1.7350351843        1.6801171283       -0.8093465892
 H          1.0280528085        3.0627997363       -0.8156365038
 O          2.9809622155        0.9178084491        2.1989398316
