  62
        -98.94963567
 C          1.6892625638        1.2247025173        0.3059274511
 C          1.3280327848        0.1514546374       -0.5414518083
 C          1.8950517381       -1.1581269038       -0.1995766336
 C          2.6656303602       -1.2737324813        0.8970865368
 C          3.3319972609       -2.5408272713        1.3473255036
 C          4.7396078489       -2.6769416158        0.7498117644
 C          4.7940814976       -2.4468132707       -0.7603523715
 H          4.5425169989       -1.4047113569       -0.9696017937
 H          5.8287685446       -2.5985785495       -1.0750297767
 C          3.8710156579       -3.3638826614       -1.5745839200
 H          4.4261876858       -3.7459047106       -2.4338182524
 H          3.5763465335       -4.2228316065       -0.9707092024
 C          2.6186406912       -2.6772223415       -2.1222553172
 H          2.9042525481       -1.7635068793       -2.6490972018
 H          2.1557109732       -3.3467472892       -2.8518353152
 C          1.5449159058       -2.3195506048       -1.0864023162
 H          0.6435968488       -2.0200409809       -1.6292129351
 H          1.2991379454       -3.1975288350       -0.4847233793
 H          5.1173929402       -3.6741910954        0.9827714616
 H          5.3914688372       -1.9450762992        1.2325054584
 H          3.4069305112       -2.5191762714        2.4361200227
 H          2.7150347447       -3.3890581217        1.0562488521
 O          2.9662164712       -0.2262720430        1.7072615218
 C          2.4823247126        1.0431777506        1.4367883060
 O          2.8221441635        1.9136514093        2.2659956970
 H         -0.4801866229        1.1797358249        1.6174560325
 C         -1.0424386372        1.7435922639        0.8869419590
 C         -0.3762470955        2.5527092378       -0.0246377800
 C         -1.1300761101        3.2747230430       -0.9419447806
 C         -2.5097709625        3.1627453021       -0.9605008221
 C         -3.1636971449        2.3148824756       -0.0852247889
 C         -2.4187249142        1.5969031521        0.8427880648
 N         -3.0288359814        0.6986607867        1.7446659558
 S         -2.6273992774       -0.9220218507        1.5795366655
 O         -3.4410161109       -1.6096825879        2.5600482129
 O         -1.2027696453       -1.0948434114        1.6982568989
 C         -3.1966081061       -1.3469933970       -0.0575691092
 C         -4.4242315054       -1.9689467802       -0.1866895763
 C         -4.9121002008       -2.2376862951       -1.4549157262
 C         -4.1720759429       -1.8708720244       -2.5691489564
 C         -2.9448254888       -1.2437663226       -2.4218078118
 C         -2.4468731155       -0.9751340344       -1.1554236069
 H         -1.4911598924       -0.4916058543       -1.0221319785
 H         -2.3625349364       -0.9546899661       -3.2821092331
 H         -4.5523198342       -2.0749368342       -3.5576859324
 H         -5.8656078502       -2.7274222089       -1.5702306933
 H         -4.9620395092       -2.2361684801        0.7087211823
 H         -4.0362714580        0.7820624408        1.7786443721
 H         -4.2373214687        2.2057218808       -0.1174233341
 H         -3.0815425135        3.7291054562       -1.6795481871
 H         -0.6353908831        3.9215372415       -1.6480042451
 C          1.1313910475        2.6107687620        0.0384514661
 H          1.4178173530        3.2281967182        0.9029281519
 C          1.7597142331        3.1951230476       -1.2108767784
 C          1.9780671498        4.6727220911       -1.3319250743
 C          3.1458559187        3.7570280068       -1.1248923842
 H          3.8241702366        3.5875028120       -1.9476144943
 H          3.6239799600        3.7436135682       -0.1558586532
 H          1.8586769987        5.1345443461       -2.3004461944
 H          1.6712186818        5.2937638802       -0.5039266247
 H          1.4997198285        2.6387070599       -2.1041632272
 O          0.5645540337        0.2833935868       -1.5348391300
