  62
        -98.94892289
 C         -2.2316674971       -0.8620566457        0.0790315881
 C         -1.5870915945       -0.1225016616       -0.9414029149
 C         -1.9969481543        1.2814366373       -1.0752679154
 C         -2.9054265972        1.7858040339       -0.2211841077
 C         -3.4179933348        3.1965619347       -0.2443402926
 C         -2.5970089247        4.1212615488        0.6633991472
 C         -1.0865242506        4.0256822437        0.4477530352
 H         -0.6175792731        4.7645768154        1.1024145676
 H         -0.7301943891        3.0459158323        0.7748749722
 C         -0.6312633437        4.2635619643       -0.9987306808
 H          0.2443264532        4.9161046472       -0.9827316632
 H         -1.4133067298        4.7803022916       -1.5574705236
 C         -0.2229443545        2.9890873593       -1.7402183291
 H          0.3343972827        3.2764255260       -2.6360951966
 H          0.4482511238        2.4085345896       -1.1021658823
 C         -1.3761094478        2.0804392480       -2.1861824588
 H         -2.1333992474        2.6733661857       -2.7044881891
 H         -0.9705744332        1.3480981841       -2.8904609493
 H         -2.9253149933        5.1487503132        0.4924525954
 H         -2.8096193474        3.8657414789        1.7042987509
 H         -4.4524984112        3.1879662544        0.1047093411
 H         -3.3941675435        3.5645633774       -1.2684759254
 O         -3.4581152504        1.0606401639        0.7864093302
 C         -3.1262057046       -0.2716584631        0.9687700069
 O         -3.6877722791       -0.8151931884        1.9441330610
 O         -0.7274665721       -0.6170092890       -1.7165039654
 C         -1.9042771110       -2.3349305936        0.2662980436
 C         -0.4129601874       -2.4903166620        0.4272286439
 C          0.3586354291       -3.3888131811       -0.2981107407
 C          1.7364118168       -3.4053690640       -0.1609777032
 C          2.3734097629       -2.5148926734        0.6843811205
 C          1.6063438274       -1.6347851483        1.4347407962
 C          0.2276409722       -1.6456271416        1.3257852726
 H         -0.3603344330       -0.9424465876        1.9040754020
 N          2.2710343235       -0.6537871251        2.2320116709
 S          2.2771961464        0.8258121745        1.4094250529
 O          3.0168322701        1.7416401826        2.2530708630
 O          0.9331893205        1.2476099837        1.0781540808
 C          3.2113149498        0.4386353178       -0.0504433773
 C          2.5599756240        0.0065652387       -1.1887599903
 C          3.3201932695       -0.3393554116       -2.2957909159
 C          4.7026688590       -0.2523228989       -2.2450015599
 C          5.3394803536        0.1831792111       -1.0921470667
 C          4.5882806653        0.5300040928        0.0186000595
 H          5.0340040528        0.8762985432        0.9366124568
 H          6.4148592208        0.2501262907       -1.0551516488
 H          5.2865596613       -0.5262609417       -3.1096468516
 H          2.8197601274       -0.6810604997       -3.1874819931
 H          1.4823621740       -0.0626182534       -1.2037800711
 H          1.8138095607       -0.5044596205        3.1226603302
 H          3.4474394526       -2.4861839300        0.7692651922
 H          2.3220692240       -4.1022992718       -0.7400300293
 H         -0.1192733516       -4.0640401086       -0.9888335490
 H         -2.3939357299       -2.6416443082        1.2021514664
 C         -2.4781761088       -3.1441342153       -0.8781467387
 C         -2.8601109086       -4.5785097166       -0.6722855448
 C         -3.9235351621       -3.5352692641       -0.8342427477
 H         -4.4917656522       -3.5126405666       -1.7519174738
 H         -4.4903649495       -3.2372965836        0.0361160523
 H         -2.7028944825       -5.2758678902       -1.4810526970
 H         -2.7108215016       -4.9996616724        0.3103540831
 H         -2.0685337699       -2.8530907029       -1.8385671630
