  62
        -98.93416016
 C         -1.4469624963       -0.7251478247        0.8844207191
 C         -2.6709334388       -1.2112904903        0.3657149571
 C         -3.7701991291       -0.2330877176        0.2810563966
 C         -3.5558768214        1.0392886112        0.6593362852
 C         -4.5475557947        2.1626968630        0.5506982305
 C         -4.6359265954        2.6511061625       -0.9093230155
 C         -5.9909401128        2.4083950645       -1.5743992146
 H         -6.7088696033        3.1387634013       -1.1952093898
 H         -5.8679573695        2.5923200657       -2.6438788203
 C         -6.5920416586        1.0137883985       -1.3746818421
 H         -7.3953170231        0.9058265909       -2.1067324742
 H         -7.0589148453        0.9524892547       -0.3904459970
 C         -5.6214456045       -0.1638957210       -1.5314703508
 H         -4.7761965068        0.1142007268       -2.1613573777
 H         -6.1479098130       -0.9709704808       -2.0451630783
 C         -5.0988311739       -0.7444972976       -0.2041307631
 H         -5.8506169585       -0.6027348906        0.5773136618
 H         -4.9542630093       -1.8216162941       -0.3293218964
 H         -4.4233143653        3.7204542549       -0.9489004136
 H         -3.8524273358        2.1535684933       -1.4847224722
 H         -5.5212346287        1.8281941080        0.9018875949
 H         -4.1994385511        2.9664665990        1.1996195188
 O         -2.3567409083        1.4763674350        1.1243167659
 C         -1.2818104275        0.6143412306        1.2505403357
 O         -0.2485153676        1.1483591776        1.6990815898
 O         -2.8637943288       -2.3984360192       -0.0076488677
 C         -0.2127936376       -1.5989002445        1.0505787857
 C          0.4975204098       -1.7320221232       -0.2750271057
 C          0.0330972870       -2.5713646097       -1.2819406011
 C          0.7077938725       -2.6515044536       -2.4864465612
 C          1.8580838241       -1.9136444682       -2.7045857003
 C          2.3237588632       -1.0631866015       -1.7082578382
 C          1.6356710136       -0.9725506951       -0.5070684303
 H          1.9884639831       -0.3003071577        0.2600033322
 N          3.4680162754       -0.2808167294       -1.9100406830
 S          4.5024774937        0.0744811947       -0.6460440902
 O          5.7433159026        0.4400165701       -1.2962663417
 O          4.5822971220       -1.0145318767        0.2995962034
 C          3.8015534587        1.5203847883        0.1169010172
 C          3.4976358702        2.6004681487       -0.6872844719
 C          2.9667133581        3.7388701974       -0.1037310695
 C          2.7519975357        3.7783680702        1.2655600132
 C          3.0662780000        2.6871997614        2.0594456447
 C          3.5979203116        1.5459618435        1.4815916392
 H          3.8479302388        0.6717560286        2.0625450057
 H          2.8910358421        2.7168231758        3.1227410049
 H          2.3325600823        4.6631089374        1.7179851787
 H          2.7178267576        4.5903087896       -0.7167988746
 H          3.6787710775        2.5324254644       -1.7472252626
 H          3.9611677762       -0.4516177856       -2.7738244249
 H          2.3895927675       -1.9883344640       -3.6412509700
 H          0.3389764789       -3.3041370007       -3.2634654650
 H         -0.8702357649       -3.1382464027       -1.1212500831
 H          0.4537122441       -1.0419247522        1.7232469452
 C         -0.5021150809       -2.9463198389        1.6802370761
 C          0.6420316377       -3.7331914635        2.2426819571
 C         -0.3606027126       -3.1049692369        3.1626557031
 H         -1.0580269049       -3.7460013142        3.6807935174
 H         -0.0571083240       -2.2389920955        3.7331813049
 H          0.6345732447       -4.8064702661        2.1296968950
 H          1.6271247024       -3.2932738322        2.1842632966
 H         -1.3020037261       -3.4917164623        1.1984513813
