  62
        -98.93312499
 C         -2.2082812753       -0.8601000805        0.0699203476
 C         -2.4859977231        0.2663665754        0.8781574074
 C         -3.1489524967        1.4017786983        0.2158278126
 C         -3.4221753737        1.3281953353       -1.0983190203
 C         -4.0528036193        2.3723891378       -1.9856141402
 C         -5.2575005016        3.1432063843       -1.4284815033
 C         -6.1608471860        2.3404239603       -0.4809447922
 H         -7.1961339118        2.4332890071       -0.8142557739
 H         -5.8996987104        1.2815461596       -0.5218101289
 C         -6.0888139536        2.8282427181        0.9680614969
 H         -6.0977343372        3.9203966105        0.9706651065
 H         -6.9845114922        2.4931374885        1.4965300222
 C         -4.8822995701        2.3359802364        1.7663763506
 H         -4.8884178168        2.8445697450        2.7335019900
 H         -4.9826382278        1.2658131659        1.9670697742
 C         -3.5138338947        2.5582723280        1.1019428567
 H         -3.4854934077        3.5027514505        0.5641629905
 H         -2.7579676175        2.5833460101        1.8917362624
 H         -5.8398163860        3.4800855662       -2.2877305458
 H         -4.9116471407        4.0388705859       -0.9143867472
 H         -3.2757307023        3.0848347576       -2.2775033233
 H         -4.3490883407        1.8335370840       -2.8887698098
 O         -3.1063424803        0.2336337524       -1.8471782410
 C         -2.4975146380       -0.8815688232       -1.2937497389
 O         -2.2741124297       -1.7990596358       -2.1049464419
 H          0.3833544462       -0.2535303254        0.5117316841
 C          0.7053183460       -1.1903668311        0.0730592168
 C         -0.1722988401       -2.2686330904        0.0767893057
 C          0.2537462813       -3.4696247833       -0.4724618767
 C          1.5173038460       -3.5740326526       -1.0295745310
 C          2.3795755934       -2.4941226903       -1.0486575565
 C          1.9688800275       -1.2904116924       -0.4886613956
 N          2.8288917302       -0.1731787763       -0.5120524611
 S          4.4248473823       -0.4257412685       -0.0134114819
 O          5.1424382313       -1.0695161590       -1.0844359666
 O          4.4461356714       -1.1100963233        1.2607884151
 C          4.9933926904        1.2523850281        0.1695360325
 C          5.0220378405        1.8274692519        1.4256045428
 C          5.4453363591        3.1414148534        1.5512549629
 C          5.8266388292        3.8543775891        0.4246250442
 C          5.7924194190        3.2629585506       -0.8296494874
 C          5.3721780070        1.9492089704       -0.9621986697
 H          5.3381336688        1.4457065161       -1.9141352050
 H          6.0921543408        3.8200644971       -1.7025880815
 H          6.1555313339        4.8766093889        0.5255385167
 H          5.4759551075        3.6025915346        2.5253098191
 H          4.7241181777        1.2333184044        2.2748003788
 H          2.4304921351        0.6093015708       -0.0097392932
 H          3.3651397143       -2.5682430495       -1.4786066920
 H          1.8348979150       -4.5123130253       -1.4591537023
 H         -0.4029108426       -4.3238082374       -0.4716760616
 C         -1.5335978775       -2.0667236081        0.6971473806
 H         -1.3856801171       -1.8011061016        1.7547493512
 C         -2.4305243932       -3.2833254519        0.6223254191
 C         -2.2895928509       -4.3842693453        1.6292691589
 C         -3.4798483157       -3.4752345504        1.6745822361
 H         -4.4415006372       -3.8666336019        1.3784099559
 H         -3.5325768290       -2.7394228799        2.4638868907
 H         -2.4356573883       -5.4030717805        1.3037282518
 H         -1.5341361849       -4.2694759290        2.3919050835
 H         -2.6902338329       -3.5487663485       -0.3961245348
 O         -2.1787648136        0.3293221570        2.0998484337
