  62
        -98.94053533
 C          0.6843965459        1.4012837237        0.5208739585
 C          1.2152417450        0.7946848373       -0.6420233898
 C          2.2707388236       -0.2052985846       -0.4173487927
 C          2.5731673373       -0.5680454359        0.8418103753
 C          3.6905323858       -1.4927197575        1.2356529938
 C          5.0295061487       -0.7272081049        1.1978722959
 C          6.0086448153       -1.2165990366        0.1297483993
 H          6.8030157556       -0.4711965375        0.0517929069
 H          6.4655090631       -2.1486227819        0.4692178443
 C          5.4196256401       -1.4654468361       -1.2626418316
 H          6.2628554394       -1.5401156858       -1.9525555374
 H          4.9177102998       -2.4338122218       -1.2800467091
 C          4.4487973825       -0.3987786719       -1.7862958991
 H          4.6362353901       -0.2641292116       -2.8533119545
 H          4.6390443954        0.5619212675       -1.3072086361
 C          2.9592123727       -0.7620647483       -1.6314477775
 H          2.4038621312       -0.3531188389       -2.4799908676
 H          2.8475816406       -1.8475534865       -1.6548129417
 H          4.8133074259        0.3313746003        1.0379265088
 H          5.5194788466       -0.8020041048        2.1699723659
 H          3.4837694516       -1.8460881677        2.2461933878
 H          3.7249007850       -2.3469419715        0.5634186389
 O          1.9407518443       -0.0568473712        1.9318090079
 C          1.0200029459        0.9706214117        1.8034090264
 O          0.5776752205        1.4054311752        2.8870076590
 O          0.8480047278        1.0891083451       -1.8083761771
 C         -0.2887743638        2.5597555528        0.3956450156
 C         -1.5363894968        2.1256540091       -0.3326319718
 C         -2.0383030447        2.7734837314       -1.4534752502
 C         -3.2010874842        2.3263579306       -2.0564776773
 C         -3.8866547895        1.2363208022       -1.5542269339
 C         -3.3979923236        0.5880828937       -0.4245304741
 C         -2.2289698439        1.0313086691        0.1722702547
 H         -1.8584529243        0.5302245669        1.0555042007
 N         -4.0920098798       -0.4976388569        0.1277329999
 S         -3.2974088053       -1.7124922076        0.9379173712
 O         -4.2435025165       -2.8095359216        0.9393792030
 O         -2.8661411409       -1.2626289210        2.2377093497
 C         -1.8944640739       -2.1726892657       -0.0622640849
 C         -2.0707566587       -2.3525818454       -1.4198799301
 C         -1.0069920239       -2.8093384811       -2.1795474245
 C          0.2036731102       -3.0963016832       -1.5696627989
 C          0.3668616517       -2.9072560526       -0.2068857704
 C         -0.6892036199       -2.4338259950        0.5547542089
 H         -0.5983869387       -2.2608035477        1.6163456174
 H          1.3070982022       -3.1283194980        0.2719036529
 H          1.0229393446       -3.4719001557       -2.1619477129
 H         -1.1263182087       -2.9473372354       -3.2419155215
 H         -3.0284593410       -2.1423006323       -1.8668557992
 H         -4.8761284133       -0.8356168734       -0.4096463733
 H         -4.7960763809        0.8917464751       -2.0218759943
 H         -3.5780734001        2.8342172812       -2.9309853244
 H         -1.5183210892        3.6253799888       -1.8583833633
 H         -0.5792603603        2.8210858445        1.4241004517
 C          0.4041063402        3.7511318092       -0.2332962846
 C         -0.0775100537        5.1399107780        0.0562992171
 C          1.2166945173        4.6586317607        0.6385935790
 H          2.1403280848        5.0592819833        0.2483755062
 H          1.2521564810        4.4312897455        1.6945539657
 H         -0.0401479669        5.8754262749       -0.7329043809
 H         -0.9220569952        5.2469421536        0.7201752636
 H          0.7882907276        3.5366558871       -1.2237010844
