  62
        -98.93242324
 C         -2.0174932284       -1.1262803987       -0.3673668002
 C         -2.7396795989       -0.5922500684        0.7283606846
 C         -3.2125862697        0.7967266616        0.6176204005
 C         -2.9221178142        1.4989697951       -0.4930908693
 C         -3.1966930370        2.9427253102       -0.8603094445
 C         -4.2070179041        3.7703001796       -0.0699101846
 C         -5.6583673142        3.3141759959       -0.2145217588
 H         -6.2728906510        3.9116727193        0.4622599766
 H         -5.9874428170        3.5225580096       -1.2356142772
 C         -5.9129393794        1.8339623752        0.0586111055
 H         -6.9809976877        1.6470590407       -0.0818638887
 H         -5.3806949888        1.2286458711       -0.6781017942
 C         -5.5374314892        1.3532979271        1.4590589362
 H         -5.9203715037        0.3354770859        1.5703107481
 H         -6.0286152790        1.9791976712        2.2064145547
 C         -4.0299042944        1.3147128032        1.7661763491
 H         -3.8698254964        0.6160326675        2.5925314157
 H         -3.6653596266        2.2878235990        2.0872039806
 H         -4.1411224253        4.7912816436       -0.4556447383
 H         -3.9221079002        3.8101839489        0.9772225834
 H         -2.2229046081        3.4440541799       -0.8163508498
 H         -3.4883931566        2.9313830225       -1.9154372012
 O         -2.2222965600        0.9467460240       -1.5249151292
 C         -1.7447475471       -0.3585318433       -1.4992919875
 O         -1.1385162284       -0.6793551249       -2.5377467367
 O         -2.9787479069       -1.2600482105        1.7717307600
 C         -1.4897679816       -2.5381977697       -0.1870276693
 C         -0.2305467582       -2.5168825901        0.6451653636
 C          0.0089250148       -3.4908496960        1.6074697043
 C          1.1764142249       -3.4708875540        2.3500296190
 C          2.1189881915       -2.4788101088        2.1534374442
 C          1.8779039040       -1.4848600523        1.2094722120
 C          0.7132816018       -1.5172542251        0.4576666688
 H          0.5410859603       -0.7506351033       -0.2831864306
 N          2.7890547438       -0.4301507915        1.0459145159
 S          2.7967366095        0.4872321841       -0.3667438012
 O          1.6647606207        1.3799603578       -0.3443692945
 O          2.9388974911       -0.3706388240       -1.5213607352
 C          4.2956012300        1.4187469839       -0.1115604451
 C          5.4458640490        1.0639851424       -0.7900902561
 C          6.6079831957        1.7850884917       -0.5631761529
 C          6.6005856668        2.8412787427        0.3351990065
 C          5.4378357113        3.1866240792        1.0083985402
 C          4.2725933124        2.4708234725        0.7848517533
 H          3.3430290976        2.7077999818        1.2759079071
 H          5.4345642518        4.0102216382        1.7040092738
 H          7.5057258427        3.4010569525        0.5099351657
 H          7.5119221355        1.5211503278       -1.0879349551
 H          5.4003652867        0.2403212357       -1.4842830659
 H          3.7208978144       -0.6459626069        1.3714445662
 H          3.0278253272       -2.4598799852        2.7347099807
 H          1.3544574078       -4.2354953604        3.0907203896
 H         -0.7326933887       -4.2566956443        1.7804590680
 H         -2.2582306337       -3.0652532699        0.4028211658
 C         -1.3081322529       -3.3059081883       -1.4869067581
 C          0.0190871314       -3.4683885979       -2.1583325872
 C         -0.6318886028       -4.6452151069       -1.4994191702
 H         -1.0446877208       -5.4213332308       -2.1257811853
 H         -0.2010684107       -5.0002528921       -0.5759980651
 H          0.0432851273       -3.4128657787       -3.2358621318
 H          0.8829219816       -3.0186650957       -1.6916750234
 H         -2.1626330367       -3.1857300594       -2.1451171683
