  62
        -98.94472310
 C         -1.5044191670       -1.7722922949       -0.4734182510
 C         -1.5366720751       -0.5983286405       -1.2670277306
 C         -2.7404858012        0.2388060737       -1.1276755492
 C         -3.7102646831       -0.1243972422       -0.2713128293
 C         -4.9592931567        0.6615906239        0.0013473575
 C         -4.7668814203        1.6342464361        1.1725779728
 C         -3.5119397341        2.5011371102        1.0639046695
 H         -3.5113882628        3.1809658509        1.9193204081
 H         -2.6215785065        1.8745565818        1.1602767701
 C         -3.4087087742        3.3144308937       -0.2335873445
 H         -4.3887961480        3.3878318884       -0.7078989473
 H         -3.0899689077        4.3286032696        0.0166163669
 C         -2.3920942247        2.7643346796       -1.2356201676
 H         -1.4464419734        2.5806961361       -0.7187844313
 H         -2.2106619558        3.5312262913       -1.9941520702
 C         -2.8101657079        1.4826214904       -1.9682228552
 H         -2.1082977549        1.3276387515       -2.7930845629
 H         -3.8110599782        1.6084291215       -2.3876825144
 H         -4.7029604788        1.0557624990        2.0972490686
 H         -5.6477115434        2.2765960507        1.2339569955
 H         -5.2395779876        1.2097199501       -0.8962098261
 H         -5.7572025319       -0.0398397827        0.2522090576
 O         -3.6437278575       -1.2537232049        0.4806163313
 C         -2.5414316505       -2.0877091947        0.4081888012
 O         -2.6037728916       -3.0823103254        1.1604855382
 O         -0.6287667917       -0.2500968819       -2.0637714680
 C         -0.3355691623       -2.7445192239       -0.4542229664
 C          0.6421977339       -2.3835869498        0.6376461436
 C          1.2738424742       -3.3676550419        1.3897058097
 C          2.1699696221       -3.0207151365        2.3853836130
 C          2.4438739672       -1.6927834851        2.6573183287
 C          1.8014994037       -0.6988411387        1.9245995627
 C          0.9206112639       -1.0532760972        0.9132545868
 H          0.4198451702       -0.2786619824        0.3581193961
 N          2.0135909696        0.6475455957        2.2257971767
 S          1.6721720884        1.9269640937        1.2141349126
 O          2.1631825229        3.0740370927        1.9488854818
 O          0.2730579933        1.9447620092        0.8750219308
 C          2.7023458186        1.6850166066       -0.2205182883
 C          2.1812814374        1.2424363703       -1.4180963870
 C          3.0425053127        1.0649348452       -2.4916041087
 C          4.3958064007        1.3241071892       -2.3516166627
 C          4.9033717215        1.7687516837       -1.1393271714
 C          4.0504922838        1.9520998443       -0.0648762470
 H          4.3993538629        2.3164780117        0.8876936647
 H          5.9563308552        1.9734990680       -1.0312505714
 H          5.0575091220        1.1811292481       -3.1913451692
 H          2.6395165337        0.7200762372       -3.4302237344
 H          1.1277898823        1.0294765184       -1.5147142487
 H          2.7419345973        0.8486874170        2.8921108027
 H          3.1316668991       -1.4225575135        3.4436845568
 H          2.6556677042       -3.7927977740        2.9625545533
 H          1.0418826626       -4.4065425109        1.2069004033
 H         -0.7720654620       -3.7214085833       -0.1886531558
 C          0.3387187210       -2.9018552323       -1.8104972247
 C          1.6803868412       -2.3217546798       -2.1293145778
 C          1.5275516196       -3.8028089860       -1.9714482177
 H          1.5822154112       -4.4260440851       -2.8511455051
 H          1.9398621824       -4.2549755937       -1.0829028748
 H          1.8257414554       -1.9139146938       -3.1171542521
 H          2.1924913548       -1.7722450079       -1.3542465088
 H         -0.3857451781       -2.9082640344       -2.6180806886
