  62
        -98.94522579
 C         -1.6085750341       -0.2204915484       -0.6048857063
 C         -2.8815074423       -0.7222797586       -0.9732472199
 C         -3.9377233411       -0.6167036086        0.0412105120
 C         -3.6390693923       -0.1020496773        1.2479836634
 C         -4.6258679895        0.1032589902        2.3599255069
 C         -5.2584102035        1.5003956543        2.2911852004
 C         -5.7882973269        1.8713432789        0.9060270013
 H         -6.2387294736        2.8630748158        0.9854293939
 H         -4.9475308704        1.9542586727        0.2136842708
 C         -6.8180850909        0.8863068660        0.3354670303
 H         -7.6471199646        1.4546803468       -0.0912999124
 H         -7.2267265261        0.2711734817        1.1379880003
 C         -6.2814516367       -0.0196548680       -0.7742821603
 H         -5.7883288759        0.5883174111       -1.5368249125
 H         -7.1321457178       -0.5147482124       -1.2500647278
 C         -5.3064767653       -1.1163051046       -0.3274669803
 H         -5.7438938601       -1.6847032733        0.4959532519
 H         -5.1595057855       -1.7947987744       -1.1729154653
 H         -6.0709183549        1.5469804830        3.0185808801
 H         -4.5031688764        2.2359345058        2.5777274587
 H         -5.3987203037       -0.6605704546        2.2984403533
 H         -4.0990951078       -0.0018392415        3.3100436845
 O         -2.3988577518        0.3381856435        1.5783315306
 C         -1.3534432469        0.2986542504        0.6649828885
 O         -0.2816164729        0.7564205158        1.1027724715
 O         -3.1221522666       -1.2353218155       -2.0991496933
 C         -0.4796191075       -0.3146408452       -1.6187653217
 C          0.4891264848       -1.3749403267       -1.1548575644
 C          0.0794835339       -2.7066942795       -1.1582714275
 C          0.9274357052       -3.7055401577       -0.7220945757
 C          2.1950470488       -3.3963193639       -0.2573856305
 C          2.6106293108       -2.0717496847       -0.2424074367
 C          1.7634561057       -1.0730761765       -0.7043564203
 H          2.1041888716       -0.0536362193       -0.6982272360
 N          3.8954920461       -1.7151485391        0.2068760744
 S          4.0133742859       -0.5425655426        1.4096902664
 O          5.3424791819       -0.7334365364        1.9554552093
 O          2.9257050415       -0.6481963664        2.3534576680
 C          3.9749299793        1.0074501541        0.5371952946
 C          2.9173571722        1.8776511417        0.7145808459
 C          2.9195897019        3.0755853806        0.0158328079
 C          3.9679996845        3.3788381694       -0.8393469963
 C          5.0227845379        2.4930276261       -1.0026321413
 C          5.0300033370        1.2951751324       -0.3067406604
 H          5.8313853531        0.5810785238       -0.3974514104
 H          5.8349126175        2.7320285306       -1.6700966647
 H          3.9598610040        4.3109399728       -1.3824799785
 H          2.0951953188        3.7602825488        0.1395801798
 H          2.1012407010        1.5933866449        1.3616238042
 H          4.4792267576       -2.5056960070        0.4438974096
 H          2.8558482872       -4.1750631545        0.0934992840
 H          0.5990761089       -4.7341196643       -0.7355079120
 H         -0.9155732238       -2.9449205394       -1.5080976048
 H         -0.9526539940       -0.6741914181       -2.5437713737
 C          0.1629731443        1.0296377789       -1.8836271106
 C          1.0374023256        1.2085127009       -3.0876601001
 C         -0.3106903277        1.8606752052       -3.0363896675
 H         -0.3627000683        2.9316025322       -2.9109837390
 H         -1.0985338770        1.4555059767       -3.6545832612
 H          1.9153270445        1.8298925468       -2.9959583368
 H          1.1643052219        0.3583275587       -3.7404707270
 H          0.4399006774        1.5530164576       -0.9768850590
