  62
        -98.94431857
 C         -2.6456094942       -1.0976908870        0.1854830511
 C         -2.7034035938       -0.2907429724       -0.9769385726
 C         -3.5149237599        0.9277527264       -0.8633250202
 C         -4.1621024882        1.1980283638        0.2849024978
 C         -5.0470189825        2.3874806398        0.5433880501
 C         -4.2868249687        3.6505977481        0.9709070822
 C         -3.4862139054        4.3346194498       -0.1381107625
 H         -3.1821113261        5.3116838095        0.2425704117
 H         -4.1338083100        4.5072445995       -0.9980897296
 C         -2.2334707954        3.5652213499       -0.5808022287
 H         -1.9793473096        2.8189624520        0.1760016453
 H         -1.3872261327        4.2527431594       -0.6469725339
 C         -2.3617935077        2.8703554554       -1.9366243647
 H         -1.4347339738        2.3247462320       -2.1312346783
 H         -2.4842673208        3.6198251822       -2.7214398332
 C         -3.5246718096        1.8732412154       -2.0261908972
 H         -3.3994420942        1.2816543755       -2.9361090804
 H         -4.4744839885        2.4045001770       -2.0800552085
 H         -3.6194209170        3.3939244378        1.7972579174
 H         -5.0241714942        4.3621476743        1.3496004656
 H         -5.7224564216        2.1022968947        1.3528673430
 H         -5.6406748523        2.6021180543       -0.3454836493
 O         -4.0952105600        0.3846818515        1.3737507648
 C         -3.3157830383       -0.7620174985        1.3604166046
 O         -3.3010481375       -1.3866423404        2.4419433977
 O         -2.1093799234       -0.5692605644       -2.0496798875
 C         -1.8085723380       -2.3626498172        0.1799282235
 C         -0.3741974227       -2.0478090200       -0.1738793692
 C          0.3948658492       -2.8545021864       -1.0025324996
 C          1.7116745491       -2.5267680610       -1.2759150787
 C          2.2897727865       -1.3941208427       -0.7338613827
 C          1.5348120967       -0.5869382860        0.1071463167
 C          0.2195422703       -0.9236823775        0.3868781366
 H         -0.3648315114       -0.2940475250        1.0483374696
 N          2.1107139795        0.5738607979        0.6551296171
 S          3.5684926329        0.4148568268        1.4748678581
 O          3.6979976816       -0.8943009406        2.0724778112
 O          3.6167763318        1.5419383977        2.3808535288
 C          4.8010013510        0.6337225512        0.2091861373
 C          4.7525114020        1.7822464422       -0.5564396645
 C          5.7113252685        1.9717566909       -1.5387466980
 C          6.6984358360        1.0172627173       -1.7350960325
 C          6.7353593188       -0.1285988881       -0.9554319055
 C          5.7781307902       -0.3253432012        0.0278624903
 H          5.7624340327       -1.2033435847        0.6536327763
 H          7.5035645599       -0.8691868994       -1.1094753352
 H          7.4432729493        1.1677275162       -2.5005222867
 H          5.6853593495        2.8612546787       -2.1473854669
 H          3.9708917779        2.4999103079       -0.3704380772
 H          1.4643749533        1.1280340221        1.1978289058
 H          3.3114813539       -1.1301134644       -0.9526961355
 H          2.2945864137       -3.1605648523       -1.9265118531
 H         -0.0385265145       -3.7397429998       -1.4380293313
 H         -1.8258342703       -2.7461826278        1.2114689599
 C         -2.4387212269       -3.3946725137       -0.7335712185
 C         -2.3125282280       -4.8564667218       -0.4298102266
 C         -3.6269477628       -4.1624815795       -0.2405195690
 H         -4.4288104460       -4.3733270962       -0.9319889207
 H         -3.9617142631       -3.9612720204        0.7671419569
 H         -2.2152054132       -5.5481074634       -1.2530624011
 H         -1.7587186241       -5.1387637247        0.4530233950
 H         -2.4396539598       -3.0826184803       -1.7715913252
