  62
        -98.93800227
 C         -2.4278035134       -0.4043704231        0.4720610128
 C         -3.2241519412       -0.3635179318       -0.6996281522
 C         -4.3147883082        0.6239446092       -0.6906906133
 C         -4.4728443395        1.4490673906        0.3586721470
 C         -5.5159272342        2.5250155835        0.4937167098
 C         -6.8724665350        2.0191268355        1.0031991558
 C         -7.6820520458        1.2016362529       -0.0042140211
 H         -8.6897982286        1.0987192571        0.4031991804
 H         -7.7642243756        1.7572463164       -0.9388533814
 C         -7.1177005081       -0.1984094541       -0.2833892808
 H         -6.4140956226       -0.4713291019        0.5066356344
 H         -7.9283946641       -0.9300885895       -0.2557049464
 C         -6.4224410816       -0.3434195225       -1.6371797152
 H         -6.0305032331       -1.3608541129       -1.7141657999
 H         -7.1501038188       -0.2018732692       -2.4393410734
 C         -5.2577061169        0.6309055447       -1.8561758558
 H         -5.6370175341        1.6368578263       -2.0337552526
 H         -4.6993738060        0.3051238133       -2.7370929843
 H         -6.7073406627        1.4256275613        1.9054812086
 H         -7.4617037754        2.8947809094        1.2851618532
 H         -5.1251841896        3.2469604433        1.2140246429
 H         -5.6503097985        3.0279395826       -0.4643236982
 O         -3.6581694513        1.4082032019        1.4471994882
 C         -2.6416699956        0.4739680802        1.5379494926
 O         -1.9999885306        0.5207256245        2.6078489905
 O         -3.0528005242       -1.0955649284       -1.7064132663
 C         -1.2836011871       -1.3860512753        0.6662023288
 C          0.0008220748       -0.8222666026        0.1154412393
 C          0.0887863824       -0.3718152859       -1.1982545029
 C          1.2792981379        0.1359971962       -1.6850666591
 C          2.4001951622        0.2117221160       -0.8763434767
 C          2.3222323625       -0.2304250194        0.4370021977
 C          1.1265908378       -0.7459613733        0.9218067240
 H          1.0666834152       -1.0791502862        1.9495838028
 N          3.4512928817       -0.1386462739        1.2672522751
 S          4.9128125703       -0.7408387840        0.7021644162
 O          4.7080011309       -1.8165254837       -0.2396340580
 O          5.6723041538       -1.0613480835        1.8906732702
 C          5.6673915239        0.6515836162       -0.1104288605
 C          6.0808087467        0.5411644521       -1.4235176441
 C          6.6784148622        1.6341096217       -2.0319369793
 C          6.8518322095        2.8109345175       -1.3198023581
 C          6.4327885077        2.9047451992       -0.0008650165
 C          5.8357082946        1.8157009797        0.6134983614
 H          5.5002245336        1.8469884916        1.6367346649
 H          6.5689487197        3.8218616174        0.5493440460
 H          7.3159517344        3.6604768634       -1.7954498271
 H          7.0046804532        1.5633670622       -3.0571278227
 H          5.9209872244       -0.3922479939       -1.9395182735
 H          3.2843863607       -0.4284241549        2.2199396196
 H          3.3288658041        0.6087125748       -1.2525347802
 H          1.3354475448        0.4796140669       -2.7068665167
 H         -0.7840079848       -0.4302332551       -1.8306915218
 H         -1.1637798329       -1.4706886519        1.7582546410
 C         -1.5987417831       -2.7811750070        0.1426440940
 C         -0.9175529071       -3.4098516408       -1.0316258783
 C         -0.6149661064       -3.8947408667        0.3522309565
 H         -0.9821234897       -4.8623283970        0.6593890826
 H          0.3474995057       -3.6355141323        0.7691964296
 H         -1.5167703352       -4.0285480340       -1.6819380268
 H         -0.1570383425       -2.8465066582       -1.5485384272
 H         -2.6461281013       -3.0325694407        0.2755506005
