  62
        -98.94395372
 C          0.2300636802        2.2113278403       -0.6223157254
 C          0.8206107555        1.0666085770       -1.2145151837
 C          2.2625645182        0.8936040023       -0.9732553032
 C          2.9174279240        1.7642881519       -0.1866875065
 C          4.3712151975        1.6749490927        0.1760905510
 C          4.5820153825        0.8913840190        1.4783659571
 C          3.8614150651       -0.4566594495        1.5202767778
 H          4.1347691721       -0.9402346161        2.4614351864
 H          2.7806556305       -0.2946613333        1.5540997522
 C          4.1933099925       -1.3934982025        0.3505497411
 H          4.3521128313       -2.3988764656        0.7466713301
 H          5.1236802092       -1.0808262939       -0.1258602003
 C          3.0860908295       -1.4970157392       -0.6998379175
 H          2.1307481072       -1.6642474287       -0.1960502674
 H          3.2884490649       -2.3678598783       -1.3290513786
 C          2.9279603887       -0.2850350980       -1.6256337881
 H          3.8989471165       -0.0026464506       -2.0381154781
 H          2.2726726215       -0.5810713758       -2.4499642137
 H          4.2181378878        1.4977244282        2.3112331782
 H          5.6541912316        0.7350711870        1.6148350919
 H          4.7529077815        2.6889898438        0.3094185568
 H          4.9132455614        1.1976347703       -0.6381187165
 O          2.3098474603        2.8279923030        0.3998507973
 C          0.9618786729        3.0696535827        0.2014407228
 O          0.5328458541        4.0813366777        0.7954626034
 O          0.2021313540        0.2280460333       -1.9185124264
 C         -1.2407166503        2.5681127750       -0.7773793901
 C         -2.0570179105        1.8834656767        0.2882245676
 C         -2.9952031767        2.5758804482        1.0439717408
 C         -3.7119410462        1.9277527335        2.0352030943
 C         -3.4952887437        0.5876358347        2.3012660442
 C         -2.5586194706       -0.1131911035        1.5488954133
 C         -1.8631464429        0.5324932858        0.5388217633
 H         -1.1391505700       -0.0143636198       -0.0413131956
 N         -2.3199671190       -1.4762700464        1.7736341447
 S         -0.7961401839       -2.1377446241        1.5602782865
 O         -0.7464505775       -3.2474131654        2.4917791166
 O          0.2452253401       -1.1486396154        1.7191037184
 C         -0.7847031432       -2.8055371720       -0.0916320753
 C         -1.7837648356       -2.5246058407       -0.9990163269
 C         -1.7020733964       -3.0679209600       -2.2717810904
 C         -0.6340285373       -3.8808019990       -2.6134440505
 C          0.3547588762       -4.1669724667       -1.6851628532
 C          0.2789588840       -3.6266555318       -0.4124373405
 H          1.0228758857       -3.8286603123        0.3422472389
 H          1.1840527767       -4.8040821949       -1.9479428097
 H         -0.5717859097       -4.2946716929       -3.6076039035
 H         -2.4725945211       -2.8471062331       -2.9928683770
 H         -2.6065239993       -1.8898630985       -0.7152869920
 H         -2.7891625885       -1.8743186565        2.5732219183
 H         -4.0406929854        0.0869265889        3.0866733873
 H         -4.4371233703        2.4752852396        2.6179610317
 H         -3.1459251176        3.6305041156        0.8654018724
 H         -1.2972453898        3.6527168839       -0.5909476431
 C         -1.7694342854        2.3204583570       -2.1838943204
 C         -2.7306954331        1.2258701819       -2.5245687109
 C         -3.1951447451        2.6492515668       -2.5163311444
 H         -3.4077130963        3.1336458134       -3.4572580759
 H         -3.8345005866        2.9604549280       -1.7039255057
 H         -2.5979864670        0.7231337998       -3.4698166198
 H         -3.0633869120        0.5779642625       -1.7295199780
 H         -1.0269251354        2.5587283449       -2.9384257910
