  62
        -98.94441883
 C         -2.0917040548       -1.3921128085        0.0396213184
 C         -2.3933072593       -0.4391829173       -0.9634631366
 C         -3.7362553771        0.1534161115       -0.9011215983
 C         -4.5977624840       -0.2205453312        0.0611003904
 C         -6.0029689877        0.2849192680        0.2428210059
 C         -6.0949523750        1.6065202328        1.0178560006
 C         -5.6290782197        2.8446136281        0.2506047793
 H         -6.1369270533        2.8860006475       -0.7135371193
 H         -5.9490323079        3.7164030882        0.8247732805
 C         -4.1107635185        2.9250548311        0.0386105493
 H         -3.6085007083        2.2445036474        0.7304450203
 H         -3.7624703441        3.9331036622        0.2753770364
 C         -3.6521724068        2.6107808057       -1.3854164423
 H         -2.5607170629        2.6649100103       -1.4120031129
 H         -4.0424112453        3.3664246962       -2.0709694290
 C         -4.0730397060        1.2256042053       -1.8936287270
 H         -5.1394791145        1.2157936404       -2.1170826561
 H         -3.5206007502        1.0154680653       -2.8127250322
 H         -7.1420665440        1.7499255814        1.2942416337
 H         -5.5178328328        1.5117128502        1.9406535229
 H         -6.4815313363        0.3983667399       -0.7302989760
 H         -6.5382387063       -0.4822448223        0.8064619357
 O         -4.2782465114       -1.1491024858        0.9999832246
 C         -3.0270083359       -1.7388418276        1.0216725214
 O         -2.8687853853       -2.5585962002        1.9482244990
 O         -1.6033563699       -0.0815043733       -1.8789665671
 C         -0.7530096243       -2.1080447226        0.1435995014
 C          0.2930525537       -1.2247468004        0.7812873736
 C          0.8826528951       -1.5770171036        1.9895633557
 C          1.8462158141       -0.7680101945        2.5669340518
 C          2.2415961478        0.4057745665        1.9514829239
 C          1.6581749719        0.7652804345        0.7429143220
 C          0.6987974825       -0.0510753211        0.1617740533
 H          0.2438021411        0.2368462646       -0.7742743067
 N          2.0561789383        1.9532403554        0.1054703027
 S          3.6996133988        2.2402389505       -0.0228917968
 O          4.1880023572        2.8098384899        1.2088436871
 O          3.8565535114        3.0630969267       -1.2016161297
 C          4.4329107612        0.6328422175       -0.2744206122
 C          5.3506242250        0.1444163413        0.6327892778
 C          5.8795382876       -1.1212508310        0.4359139793
 C          5.4793574068       -1.8741586324       -0.6567438681
 C          4.5586749855       -1.3676700188       -1.5613444996
 C          4.0282403640       -0.1024851101       -1.3710054803
 H          3.3123764152        0.3190550419       -2.0585749059
 H          4.2485106777       -1.9541528780       -2.4112113396
 H          5.8865566436       -2.8616032098       -0.8062191427
 H          6.5972148248       -1.5166558391        1.1364966801
 H          5.6297297794        0.7620455505        1.4708704892
 H          1.5830392305        2.1179223625       -0.7710207972
 H          2.9825738649        1.0536717054        2.3912713822
 H          2.2924944715       -1.0526969498        3.5074292633
 H          0.5690739016       -2.4849714886        2.4837309850
 H         -0.9264933867       -2.9577343219        0.8168993147
 C         -0.2646217242       -2.6459962272       -1.1884825694
 C          0.7444781184       -3.7527082009       -1.1980265891
 C         -0.6699254114       -4.0238272519       -1.6132893514
 H         -0.8797416927       -4.1999171803       -2.6577065043
 H         -1.3011074560       -4.5882439711       -0.9420001152
 H          1.5092444260       -3.7449298571       -1.9589868392
 H          1.0752204047       -4.1365398755       -0.2450299819
 H         -0.1941931049       -1.8899897812       -1.9588432193
