  62
        -98.94046868
 C          2.6383565027        1.3022734319       -0.2172846262
 C          2.3617704348        0.1157050546       -0.9381753262
 C          3.4858579601       -0.8214590185       -1.0810192025
 C          4.6808095352       -0.5067320411       -0.5486544159
 C          5.8916639067       -1.3929722973       -0.5715190962
 C          5.9487524296       -2.2843460775        0.6769105953
 C          4.6396233770       -3.0161251530        0.9737736009
 H          4.8074189767       -3.6388686896        1.8552406181
 H          3.8721296790       -2.2852250402        1.2400917554
 C          4.1257301813       -3.8902238773       -0.1787257544
 H          3.8060344494       -4.8521865910        0.2274457208
 H          4.9347343008       -4.0882254484       -0.8828451546
 C          2.9292690910       -3.3069219367       -0.9331104215
 H          2.5152486315       -4.0920183207       -1.5716846958
 H          2.1490928861       -3.0216400398       -0.2217860146
 C          3.2295489492       -2.0989858541       -1.8297308278
 H          4.0645712034       -2.3320813862       -2.4935369316
 H          2.3425638174       -1.9137913384       -2.4426509312
 H          6.1934249771       -1.6587494144        1.5384025333
 H          6.7519674157       -3.0115901863        0.5457885539
 H          5.8695184048       -2.0075261405       -1.4691930130
 H          6.7804462057       -0.7603130693       -0.5959293841
 O          4.9108562307        0.6495941658        0.1241762296
 C          3.8965710676        1.5708897062        0.3228246513
 O          4.2342214249        2.5741748311        0.9830027832
 H         -1.0954780570        1.8133855556       -0.6370206494
 C         -0.8360993899        1.4773580316        0.3544018484
 C          0.4469157102        1.6736818934        0.8354610331
 C          0.7577198199        1.2136376136        2.1130616630
 C         -0.1929456836        0.5738551198        2.8838823366
 C         -1.4750265882        0.3776194138        2.3991953845
 C         -1.7936852760        0.8277865576        1.1262125405
 N         -3.0979610487        0.6542542258        0.6265182555
 S         -3.8709234327       -0.8173638818        0.9283142980
 O         -4.3817331796       -0.7938220861        2.2767734667
 O         -2.9994120869       -1.9244249821        0.6041334517
 C         -5.2236506665       -0.7231656476       -0.2277243239
 C         -5.0741382873       -1.2746857851       -1.4860538692
 C         -6.1204660423       -1.1750871747       -2.3896354218
 C         -7.2901305945       -0.5265101218       -2.0226494625
 C         -7.4248203765        0.0223348625       -0.7560630473
 C         -6.3831942477       -0.0748886738        0.1527681345
 H         -6.4451402129        0.3272678468        1.1502956920
 H         -8.3366121264        0.5235779842       -0.4742838741
 H         -8.1023270461       -0.4510872910       -2.7283179529
 H         -6.0191755902       -1.6028945582       -3.3740619287
 H         -4.1502398649       -1.7769992769       -1.7258717049
 H         -3.1557826387        0.8892828972       -0.3554381151
 H         -2.2228560402       -0.1311200879        2.9856587094
 H          0.0637459027        0.2194454749        3.8713096352
 H          1.7624831102        1.3582847497        2.4879247663
 C          1.5407082850        2.3250993100        0.0239805052
 H          1.9933961709        3.1157274859        0.6385823588
 C          1.0726834517        2.9307112846       -1.2818121975
 C          0.3736470259        4.2561464919       -1.2804222620
 C          1.7716115261        4.1463045244       -1.8088170856
 H          1.9299481044        4.2279667830       -2.8737040973
 H          2.5787198164        4.5515230103       -1.2160159040
 H         -0.4280806425        4.4188344334       -1.9846888980
 H          0.2287528209        4.7414845363       -0.3271945141
 H          0.7603658235        2.1856265067       -2.0039806604
 O          1.2391281381       -0.1498077678       -1.4432686787
