  62
        -98.94939983
 C         -1.3407843687       -1.6050792703        0.2665893062
 C         -1.6173114824       -0.6251180295        1.2499284424
 C         -2.8028846261        0.2079524861        1.0192134504
 C         -3.5465287801       -0.0003623943       -0.0822679176
 C         -4.7633545454        0.7929274270       -0.4592590605
 C         -4.4055211461        1.9716176321       -1.3741090986
 C         -3.2512879572        2.8334554338       -0.8608834144
 H         -2.3193551116        2.2632380277       -0.8959545793
 H         -3.1329159010        3.6660284925       -1.5586258031
 C         -3.4463783504        3.3844205493        0.5583916057
 H         -4.5022670685        3.3494307735        0.8314995947
 H         -3.1410571895        4.4329192350        0.5669355101
 C         -2.6146760715        2.6725476039        1.6272673405
 H         -1.5810467816        2.5942805734        1.2779487796
 H         -2.6126798770        3.2928391076        2.5280189350
 C         -3.1059792929        1.2757536405        2.0313373898
 H         -2.5760295449        0.9858801460        2.9435224855
 H         -4.1751681138        1.3108374092        2.2517582358
 H         -5.2951836491        2.5926025203       -1.4976208747
 H         -4.1266156320        1.5779965216       -2.3543923110
 H         -5.4517074780        0.1319455097       -0.9892442061
 H         -5.2475376486        1.1559785369        0.4452586473
 O         -3.2506335796       -0.9488704713       -1.0070643838
 C         -2.1191145709       -1.7431620247       -0.8820985210
 O         -1.9316315017       -2.5197568709       -1.8381115419
 H          0.3906044891        0.0257145679       -0.4377532594
 C          1.0515460534       -0.6791306080       -0.9158206614
 C          0.9313049777       -2.0315977376       -0.6297789043
 C          1.7740632814       -2.9212223122       -1.2841210344
 C          2.6979492193       -2.4568268314       -2.2052655762
 C          2.8213068643       -1.1057653877       -2.4762252649
 C          1.9855430681       -0.2074281213       -1.8224142964
 N          2.0615159361        1.1734256946       -2.0557504311
 S          1.7899578619        2.2383345901       -0.7925737742
 O          0.3869589690        2.2962671263       -0.4715882259
 O          2.3832508523        3.4789506633       -1.2458038888
 C          2.7452127175        1.5812840896        0.5633207872
 C          4.1203626090        1.6776061773        0.4579811594
 C          4.9131936613        1.1378725746        1.4561820017
 C          4.3201366295        0.5069884801        2.5398571823
 C          2.9404649657        0.4241521048        2.6340777181
 C          2.1400070989        0.9650947672        1.6388191282
 H          1.0643977437        0.9012956184        1.6982291069
 H          2.4698061809       -0.0632929631        3.4731089152
 H          4.9352311831        0.0802248121        3.3163189957
 H          5.9867485371        1.2071299861        1.3864562776
 H          4.5411672967        2.1874414174       -0.3935024181
 H          2.8261288430        1.4698468122       -2.6436522665
 H          3.5462777124       -0.7489497028       -3.1914395050
 H          3.3394354714       -3.1590860551       -2.7155591078
 H          1.7018850325       -3.9769253945       -1.0801056912
 C         -0.0844132977       -2.4440590353        0.4095922020
 H          0.3292883053       -2.1776579970        1.3949337604
 C         -0.3978227174       -3.9246060985        0.3999630868
 C          0.4513542943       -4.8806058409        1.1821116591
 C         -0.9352062797       -4.5568546189        1.6480227890
 H         -1.7037088405       -5.3092780921        1.5545860640
 H         -1.0499087376       -3.9228993991        2.5152813366
 H          1.2797775178       -4.4727429803        1.7412890511
 H          0.6349357654       -5.8616441771        0.7706156071
 H         -0.8095456817       -4.2573497574       -0.5456629409
 O         -0.8995272458       -0.4538906776        2.2731893855
