  62
        -98.94753024
 C         -1.3318644803       -1.6297536063       -0.5032877769
 C         -1.1925996790       -0.3198528479       -1.0267896548
 C         -2.3818045692        0.5417852993       -0.9261734885
 C         -3.5101353847        0.0615414007       -0.3757050814
 C         -4.7804942886        0.8387600475       -0.1879904870
 C         -4.8282340530        1.5136064824        1.1890799421
 C         -3.5644796944        2.3012020901        1.5354228103
 H         -3.7297405012        2.7724399100        2.5071323425
 H         -2.7260465590        1.6102572017        1.6566082736
 C         -3.1818303993        3.3733435229        0.5061772697
 H         -2.9072482904        4.2857385387        1.0401615827
 H         -4.0412116632        3.6102962097       -0.1229211621
 C         -1.9883689939        2.9986691544       -0.3750630355
 H         -1.1727077012        2.6426932209        0.2609997801
 H         -1.6465111829        3.9058709521       -0.8826343510
 C         -2.2603790285        1.9430036582       -1.4551786560
 H         -3.1500422626        2.2201615236       -2.0252180547
 H         -1.4031877764        1.9318753321       -2.1347626559
 H         -5.6922335902        2.1804188284        1.2169390996
 H         -4.9692125072        0.7420657740        1.9495705759
 H         -4.8607142308        1.5873480495       -0.9737551033
 H         -5.6199344202        0.1460382864       -0.2711960108
 O         -3.6117037315       -1.2024259562        0.1086858529
 C         -2.5288297451       -2.0627298048        0.0753456162
 O         -2.7572609821       -3.1847025237        0.5731993692
 H          1.2482778723       -0.4470990294        0.0271157884
 C          1.3847357049       -1.1973518432        0.7875314200
 C          0.7103769822       -2.4049680585        0.6828388568
 C          0.8872568688       -3.3583568611        1.6785861530
 C          1.7131424331       -3.0991726208        2.7584138863
 C          2.3630807649       -1.8832834647        2.8730587476
 C          2.1909792433       -0.9238350910        1.8814303169
 N          2.8413473805        0.3160206560        1.9477206204
 S          2.0908170447        1.6836873533        1.3352575469
 O          2.7859230895        2.7849661478        1.9746035292
 O          0.6630219360        1.6498493038        1.5546462706
 C          2.4932109334        1.7096294680       -0.3987211446
 C          3.5415104383        0.9521170805       -0.8796507374
 C          3.8543991424        1.0248437652       -2.2275585204
 C          3.1237679247        1.8523868277       -3.0653511924
 C          2.0804352864        2.6134400885       -2.5637865324
 C          1.7616485687        2.5443696149       -1.2176659604
 H          0.9491867370        3.1109381310       -0.7927093629
 H          1.5083503252        3.2540669138       -3.2160219896
 H          3.3648927534        1.9010936551       -4.1157876368
 H          4.6635839981        0.4299260765       -2.6203221626
 H          4.0841507705        0.3078671337       -0.2077767704
 H          3.3368726733        0.5056453868        2.8061522856
 H          2.9936951350       -1.6741419825        3.7238635188
 H          1.8421049486       -3.8465549472        3.5267146413
 H          0.3579397427       -4.2976886235        1.6116140290
 C         -0.2069150781       -2.6555442006       -0.4897658204
 H         -0.6935922682       -3.6280161593       -0.3339938971
 C          0.5775113467       -2.7126549612       -1.7863633685
 C          1.3487975398       -3.9548362832       -2.1121496517
 C          0.1111358846       -3.6156083374       -2.8864834567
 H          0.2134111251       -3.2779669879       -3.9066821538
 H         -0.7792496535       -4.2015569484       -2.7086410348
 H          1.2977154936       -4.7744675942       -1.4113860845
 H          2.3049771001       -3.8524822130       -2.6013438294
 H          1.0061353301       -1.7612965647       -2.0714469972
 O         -0.1482020037        0.1286079486       -1.5690993725
