  62
        -98.94010321
 C          2.5297114347       -0.1072135202        0.4694408511
 C          2.1996591556       -0.7821797322       -0.7287800698
 C          1.7177087451       -2.1680592926       -0.5902513190
 C          1.5573742343       -2.6893414712        0.6378922917
 C          1.1092390224       -4.0742995655        1.0391646061
 C          0.0067636714       -4.7464066957        0.2150277382
 C         -1.1016717331       -3.8044759464       -0.2770616608
 H         -2.0717193306       -4.2158603551        0.0094475515
 H         -1.0107207172       -2.8249578967        0.1981922792
 C         -1.0924654146       -3.6178471328       -1.7954145051
 H         -2.0781273178       -3.2677329706       -2.1099763131
 H         -0.9144387927       -4.5838834114       -2.2741948839
 C         -0.0699821968       -2.6029633715       -2.3010627120
 H         -0.3446800708       -1.6075458519       -1.9428247485
 H         -0.1178164999       -2.5834735414       -3.3928597458
 C          1.3834314100       -2.8703613264       -1.8755306417
 H          1.5877811923       -3.9371322703       -1.8145721721
 H          2.0412877737       -2.4329535322       -2.6317560846
 H          0.4496447359       -5.2546479407       -0.6403507047
 H         -0.4281700153       -5.5202110527        0.8504976234
 H          1.9918413621       -4.7218580880        1.0501107263
 H          0.7764422917       -3.9711789849        2.0754959774
 O          1.8519265655       -1.9853281354        1.7709784860
 C          2.3341755796       -0.6910628502        1.7179939690
 O          2.5556872901       -0.1764154986        2.8356868330
 H          0.4229336150        1.2535724100        1.0507365422
 C          0.6060365004        1.9702119228        0.2614308007
 C          1.9033400613        2.1778107182       -0.1894900001
 C          2.1158829786        3.1233627979       -1.1837452517
 C          1.0464038685        3.8103626226       -1.7334085352
 C         -0.2491759726        3.5567679491       -1.3226334257
 C         -0.4688869195        2.6259412724       -0.3130141178
 N         -1.7650114901        2.3319710391        0.1464864682
 S         -2.0671503479        0.7205572424        0.5706166421
 O         -1.7569270891        0.5461812416        1.9690704801
 O         -1.4087456171       -0.1701795368       -0.3540585963
 C         -3.8343655040        0.6480308457        0.3405279291
 C         -4.3398019695        0.1342287906       -0.8386189254
 C         -5.7130949891        0.1114022135       -1.0257697165
 C         -6.5522587213        0.6035240631       -0.0374127489
 C         -6.0301079342        1.1151401911        1.1414729373
 C         -4.6581063603        1.1394959436        1.3355824731
 H         -4.2055738487        1.5171279343        2.2377171384
 H         -6.6856285815        1.4935689301        1.9090652498
 H         -7.6203568838        0.5853893101       -0.1855621425
 H         -6.1214348548       -0.2893443368       -1.9394690519
 H         -3.6472342830       -0.2430321451       -1.5741883429
 H         -2.4881065147        2.6998277218       -0.4570777136
 H         -1.0833246276        4.0704950856       -1.7758748135
 H          1.2237901701        4.5383140375       -2.5105750809
 H          3.1157681569        3.3113044332       -1.5391201356
 C          2.9967488840        1.3377884401        0.4266761323
 H          3.1183562453        1.6483259195        1.4754852289
 C          4.3301152126        1.4558662906       -0.2799871805
 C          5.2741923141        2.5653670782        0.0708810311
 C          5.5827329001        1.1592484566        0.4864752256
 H          6.3816731058        0.6338996668       -0.0146519855
 H          5.4732651663        0.8955367601        1.5286890409
 H          4.9647315466        3.2619573091        0.8353813809
 H          5.8669707349        3.0059379058       -0.7164043593
 H          4.2835053288        1.1254559325       -1.3110138107
 O          2.3244308162       -0.2635017587       -1.8692245037
