  62
        -98.93583921
 C         -1.7731730857       -0.4351324044        0.2621423000
 C         -2.8993265729       -0.4575330216        1.1172064358
 C         -4.2065814267       -0.5757210631        0.4578538761
 C         -4.2682115629       -0.6690471325       -0.8828854696
 C         -5.5110292301       -0.8435462332       -1.7155027173
 C         -6.5143097514        0.3259639281       -1.6960189725
 C         -7.6379893691        0.1788023658       -0.6624650341
 H         -8.5727790918        0.5241898946       -1.1087410616
 H         -7.7714085731       -0.8799515304       -0.4370470116
 C         -7.4517141697        0.9593488928        0.6422759712
 H         -7.6917332083        2.0105789191        0.4667409618
 H         -8.1720113393        0.5751398184        1.3678090605
 C         -6.0533944705        0.9062222769        1.2579567171
 H         -6.1074726273        1.3259720911        2.2645517585
 H         -5.3781794976        1.5520469602        0.6913343939
 C         -5.4315751260       -0.5023971435        1.3223165700
 H         -5.1065540502       -0.7188773958        2.3420150290
 H         -6.1574951665       -1.2576996448        1.0251181027
 H         -5.9780837953        1.2627044241       -1.5461490811
 H         -6.9681868000        0.3692375102       -2.6873474259
 H         -5.1564103439       -0.9913262052       -2.7375149484
 H         -6.0169979236       -1.7594816122       -1.4019964814
 O         -3.1568195565       -0.6565576064       -1.6690441557
 C         -1.8876459728       -0.5280491445       -1.1250088717
 O         -0.9672396406       -0.5146811638       -1.9631630689
 O         -2.8164725471       -0.3840355302        2.3734266251
 C         -0.3900826358       -0.3068520803        0.8706222492
 C          0.3261984274        0.9116114990        0.3421846071
 C         -0.3809994429        2.0978434546        0.1630459551
 C          0.2460857339        3.2306186283       -0.3166646737
 C          1.5992708632        3.2137818944       -0.6055742587
 C          2.3200527507        2.0429361616       -0.4113835695
 C          1.6823896962        0.9004794922        0.0539782478
 H          2.2606947533        0.0026710910        0.1955817137
 N          3.6923720288        1.9899284240       -0.6965300743
 S          4.7265748863        1.1850392506        0.3436200651
 O          4.2673675763        1.2534157057        1.7110547872
 O          6.0282836650        1.7631640614        0.0829803445
 C          4.7327051332       -0.5029591940       -0.2215950962
 C          4.8412239394       -1.5166270254        0.7096091275
 C          4.9017208989       -2.8297465532        0.2689977905
 C          4.8527093880       -3.1044106121       -1.0888096459
 C          4.7446300726       -2.0744824693       -2.0111342515
 C          4.6889721035       -0.7594995853       -1.5776403010
 H          4.6024288236        0.0632914265       -2.2673982297
 H          4.7030973215       -2.2921422991       -3.0662823444
 H          4.8971884015       -4.1267509216       -1.4298780316
 H          4.9855405952       -3.6315165064        0.9856063502
 H          4.8637355801       -1.2590263894        1.7565505227
 H          4.0931297619        2.8579729079       -1.0210397382
 H          2.0921624679        4.0990640779       -0.9780321856
 H         -0.3205450077        4.1385565736       -0.4601125291
 H         -1.4364065492        2.1179467642        0.3988256390
 H         -0.5566967077       -0.1593682744        1.9489453203
 C          0.3850504851       -1.5933530705        0.6720606865
 C          1.3917722380       -2.0421882031        1.6873112486
 C          0.0829503283       -2.7605799569        1.5618716025
 H          0.0759900793       -3.7501245666        1.1306160640
 H         -0.6595880737       -2.6144236954        2.3328028270
 H          2.2836495260       -2.5400337413        1.3378637090
 H          1.5487120822       -1.4118322725        2.5499921147
 H          0.5856672997       -1.7977433358       -0.3738695564
