  62
        -98.93199991
 C         -2.2322354442        0.7138563178        0.4569314288
 C         -3.5781281747        1.0998671571        0.2370222057
 C         -4.4619831818        0.1332173358       -0.4421116245
 C         -3.9371483031       -1.0311141287       -0.8655891934
 C         -4.6352043178       -2.1763319783       -1.5497850486
 C         -5.4845992804       -3.0169373100       -0.5827355175
 C         -6.3283735915       -2.2095511006        0.4002048264
 H         -5.6737742841       -1.5624018493        0.9867802679
 H         -6.7938953753       -2.9142076951        1.0943244738
 C         -7.4388214761       -1.3721550541       -0.2297252064
 H         -8.0128467804       -0.9276353730        0.5873432028
 H         -8.1100930450       -2.0288850639       -0.7875338289
 C         -6.9819936834       -0.2434772008       -1.1565537680
 H         -7.8448157925        0.4072069318       -1.3263631809
 H         -6.6901709908       -0.6279121713       -2.1302140167
 C         -5.8767059950        0.6403400591       -0.5872495111
 H         -6.1758964317        0.9939643760        0.4061556000
 H         -5.8018473259        1.5451916662       -1.2024905160
 H         -4.8081680610       -3.6477737480       -0.0008051611
 H         -6.1315369406       -3.6697178577       -1.1711485882
 H         -3.8531020325       -2.8127668491       -1.9699144405
 H         -5.2379651559       -1.8065676504       -2.3740530967
 O         -2.6243628853       -1.3430488374       -0.6759267799
 C         -1.7401466514       -0.5027233062       -0.0179861966
 O         -0.5862014593       -0.9631311787        0.0693173890
 O         -4.0375464590        2.2160172277        0.6005660941
 C         -1.3281351404        1.7150610169        1.1556970978
 C         -0.0808737414        1.9304845286        0.3383585678
 C         -0.1415122761        2.7342063499       -0.7961849062
 C          0.9721312741        2.9108091376       -1.5953573520
 C          2.1670921887        2.2862987881       -1.2832945164
 C          2.2335950518        1.4728245598       -0.1606648228
 C          1.1169608526        1.3086185532        0.6495797209
 H          1.1714283241        0.6586295491        1.5088867072
 N          3.4425934095        0.8345205469        0.1756011259
 S          4.3753796366        0.1955414466       -1.0782023502
 O          5.1226683443        1.2728332151       -1.6804258469
 O          3.5591078309       -0.5832702998       -1.9823685132
 C          5.4799667845       -0.8616517918       -0.1628168432
 C          6.6853095540       -0.3535638924        0.2824059292
 C          7.5272903007       -1.1737554543        1.0166622856
 C          7.1514554100       -2.4797694716        1.2929103903
 C          5.9381645696       -2.9757113008        0.8392076236
 C          5.0909140091       -2.1606057027        0.1052035572
 H          4.1423308627       -2.5074314857       -0.2741698854
 H          5.6487635909       -3.9920041535        1.0535187309
 H          7.8084208601       -3.1172911571        1.8632468190
 H          8.4719058018       -0.7929423651        1.3698832178
 H          6.9368671477        0.6647214199        0.0361730933
 H          3.3042218470        0.1421121780        0.8996055289
 H          3.0394854601        2.4028253848       -1.9059393576
 H          0.9113466965        3.5361464097       -2.4737195081
 H         -1.0786309627        3.2101143939       -1.0514948134
 H         -1.9069444149        2.6528025409        1.1455506607
 C         -1.0376996433        1.4035173470        2.6161488457
 C         -2.1116463249        0.8441530329        3.4994286080
 C         -0.9159465300        0.0106624383        3.1542540623
 H         -0.1826450361       -0.1728430263        3.9263010459
 H         -1.0395738162       -0.8112661302        2.4669877330
 H         -2.2045554874        1.2244646923        4.5053890923
 H         -3.0555189694        0.5984099467        3.0348591474
 H         -0.3878188286        2.1516445208        3.0602445738
