  62
        -98.94260959
 C          1.4399346518        1.0740303391       -0.0031239696
 C          2.7806173920        1.5347585485        0.0290551010
 C          3.7801134514        0.5896847279        0.5447944910
 C          3.3756562407       -0.6119930920        0.9941596906
 C          4.2897458901       -1.6944425426        1.4891105806
 C          4.7103806200       -2.6301990625        0.3471558505
 C          5.2187514607       -1.8988193124       -0.8953106291
 H          5.5155260806       -2.6582551524       -1.6219649692
 H          4.3954437211       -1.3346435219       -1.3395874992
 C          6.3985744711       -0.9514331330       -0.6362452185
 H          6.8699742307       -1.1975691235        0.3159710116
 H          7.1473884212       -1.1024010932       -1.4167366283
 C          6.0338697518        0.5343225072       -0.6509772883
 H          6.9616216720        1.1122965867       -0.6756359678
 H          5.4810377021        0.7670663576       -1.5649046584
 C          5.2162115116        1.0321981972        0.5475644016
 H          5.7088775012        0.7374861368        1.4764831617
 H          5.1929112121        2.1251226773        0.5028177219
 H          5.4868112496       -3.3013191329        0.7188745106
 H          3.8475454598       -3.2347396520        0.0587522401
 H          5.1686886501       -1.2412567931        1.9434950810
 H          3.7584130595       -2.2739572925        2.2457222103
 O          2.0752476005       -0.9949246414        1.0083904301
 C          1.0699189111       -0.1698841008        0.5130083500
 O         -0.0684888092       -0.6590716703        0.6033507495
 O          3.1251536927        2.6856962084       -0.3524508886
 C          0.3861607424        2.0133116097       -0.5621869397
 C         -0.8147204179        2.0469816001        0.3469548100
 C         -0.6795771780        2.6048746397        1.6156485901
 C         -1.7454929883        2.6287370300        2.4935119798
 C         -2.9667050984        2.0910091806        2.1269663493
 C         -3.1121879383        1.5344625310        0.8619476691
 C         -2.0427306980        1.5224368807       -0.0224240906
 H         -2.1795818379        1.0793223110       -0.9937968907
 N         -4.3445073584        1.0019257417        0.4612701686
 S         -4.4560418586       -0.2504524780       -0.6326180518
 O         -4.1512144180        0.2215919222       -1.9610224215
 O         -5.8038421689       -0.7494853274       -0.4463821223
 C         -3.2958054894       -1.5093013087       -0.1367842017
 C         -2.4839318293       -2.0871687788       -1.0885872516
 C         -1.6226824199       -3.1026009493       -0.7091585616
 C         -1.5869630905       -3.5185729396        0.6109157283
 C         -2.4096801305       -2.9278025795        1.5559513582
 C         -3.2760488000       -1.9154590890        1.1813616582
 H         -3.9276280900       -1.4411150089        1.8975330981
 H         -2.3718248810       -3.2483210998        2.5850131582
 H         -0.9060453310       -4.3013122600        0.9070499783
 H         -0.9746787499       -3.5567932694       -1.4425803015
 H         -2.5331775588       -1.7255884885       -2.1034619915
 H         -5.0433228186        0.9351199918        1.1857395784
 H         -3.7999808686        2.1015610908        2.8129188690
 H         -1.6251048384        3.0626500997        3.4747867700
 H          0.2791982421        3.0119339292        1.9072959505
 H          0.8622025729        3.0079470695       -0.5382589093
 C          0.0233518627        1.7397860103       -2.0140180799
 C          1.0418464528        1.2126634000       -2.9784997697
 C         -0.1108307377        0.3517764505       -2.5614309102
 H         -0.8990001276        0.1635771110       -3.2766039405
 H          0.0740803017       -0.4715983298       -1.8891021604
 H          1.0546300233        1.6101876203       -3.9822230296
 H          2.0216945026        0.9772385195       -2.5891560294
 H         -0.6691717768        2.4804279707       -2.4036871999
