  62
        -98.95138371
 C         -1.8180829320       -1.2624109212       -0.2874105554
 C         -2.9127192290       -0.5857962469        0.2978393201
 C         -3.2346888564        0.7237398312       -0.2775162368
 C         -2.5122406495        1.1954673145       -1.3101901657
 C         -2.7042078686        2.5234054892       -1.9899114680
 C         -1.9939912209        3.6775728632       -1.2686999857
 C         -2.6679302475        4.1451983355        0.0220042966
 H         -2.2141012672        5.1010474166        0.2916133188
 H         -3.7279303180        4.3257795454       -0.1629536825
 C         -2.5032865219        3.1767330163        1.2016651993
 H         -1.6726342211        2.4960641585        0.9965793262
 H         -2.2302578051        3.7398845380        2.0979306093
 C         -3.7560746359        2.3678033648        1.5411112481
 H         -4.5416884250        3.0419892943        1.8911254709
 H         -3.5090292270        1.6855129168        2.3588409701
 C         -4.3115505341        1.5336312809        0.3794303085
 H         -5.0520246238        0.8378656859        0.7825609476
 H         -4.7992424620        2.1813909228       -0.3486471559
 H         -1.9502345211        4.5222099046       -1.9606780971
 H         -0.9687998975        3.3702019165       -1.0450069376
 H         -3.7678267964        2.7453525807       -2.0822957527
 H         -2.2782765720        2.4269799025       -2.9908915116
 O         -1.5004587861        0.4912615690       -1.8787676699
 C         -1.0943829715       -0.7212691652       -1.3492665299
 O         -0.1023098130       -1.2233597865       -1.9144567670
 O         -3.5800488038       -1.0502140911        1.2630185183
 C         -1.3377106197       -2.5664651238        0.3220250420
 C          0.0992697453       -2.4165518620        0.7604320599
 C          1.0510268580       -3.4195266038        0.6233432887
 C          2.3626033046       -3.2022040578        1.0106337418
 C          2.7597897203       -1.9764477488        1.5131473624
 C          1.8122281729       -0.9712404430        1.6640917946
 C          0.4920112019       -1.2088674096        1.3234094139
 H         -0.2292596959       -0.4154896682        1.4553238468
 N          2.1572600930        0.3176300194        2.1283404337
 S          2.0230289219        1.5461082120        0.9894473016
 O          2.4951024254        2.7380244223        1.6620723714
 O          0.6816347018        1.5960148695        0.4720721826
 C          3.1944795064        1.0778765478       -0.2717407314
 C          2.8349463522        0.1487995088       -1.2271590338
 C          3.7931941406       -0.2695876020       -2.1390215184
 C          5.0810857236        0.2390700421       -2.0793094586
 C          5.4243996998        1.1728588722       -1.1127105771
 C          4.4752666371        1.5924393108       -0.1956059480
 H          4.6935050206        2.3176546672        0.5718778927
 H          6.4255794406        1.5704399607       -1.0691228561
 H          5.8199376381       -0.0934563594       -2.7913521903
 H          3.5175716735       -0.9949658186       -2.8876606256
 H          1.8254724972       -0.2321993980       -1.2632910671
 H          3.0775676826        0.3637688852        2.5456274576
 H          3.7895059056       -1.7948710901        1.7824064171
 H          3.0900714990       -3.9912017455        0.8968715611
 H          0.7667399084       -4.3710115247        0.2042591607
 H         -1.9625231942       -2.7232954451        1.2144906223
 C         -1.5535950422       -3.7209059179       -0.6346792234
 C         -1.8506731766       -5.0947467184       -0.1139261253
 C         -2.9308054385       -4.2942684325       -0.7752362131
 H         -3.2686314573       -4.5896778878       -1.7571500563
 H         -3.7076350044       -3.8690667940       -0.1565244149
 H         -1.4491374957       -5.9451400789       -0.6441396501
 H         -1.9025198218       -5.2241356451        0.9565958507
 H         -0.9553045334       -3.6296376307       -1.5343189630
