  62
        -98.94672249
 C         -1.9885205455       -1.4564192988       -0.0886201727
 C         -1.7186682486       -0.2216090894       -0.7238515141
 C         -2.8736536559        0.6672199041       -0.9127091119
 C         -4.0930211384        0.2556453442       -0.5200157315
 C         -5.3433728889        1.0815948881       -0.6015443117
 C         -5.5653997584        1.8806574885        0.6906179184
 C         -4.3304799429        2.6475746991        1.1640231663
 H         -4.6147279526        3.1951629655        2.0652043828
 H         -3.5563934772        1.9330454051        1.4532769665
 C         -3.7549552299        3.6265829557        0.1311627865
 H         -4.5020499284        3.8388310509       -0.6344407020
 H         -3.5275693069        4.5696883831        0.6323945525
 C         -2.4629246353        3.1543188946       -0.5383990852
 H         -1.7477231380        2.8452140159        0.2285418804
 H         -2.0298598310        4.0031277451       -1.0747000704
 C         -2.6168586080        2.0064182806       -1.5444379038
 H         -3.3993218082        2.2505462330       -2.2657027050
 H         -1.6713214761        1.9048897259       -2.0856644926
 H         -6.3891781945        2.5779782606        0.5277017657
 H         -5.8601700949        1.1857636371        1.4804577817
 H         -5.2718045295        1.7571761710       -1.4516993829
 H         -6.1902946481        0.4103115312       -0.7531914372
 O         -4.3188713627       -0.9559447958        0.0502708049
 C         -3.2747608460       -1.8320700561        0.2984037535
 O         -3.6131136193       -2.8931205203        0.8606315739
 O         -0.5727065391        0.1262424637       -1.1094360642
 C         -0.8514034078       -2.4239432059        0.1880932911
 C          0.2041564223       -1.7371990188        1.0203888505
 C         -0.1785651141       -1.1415924555        2.2207627627
 C          0.7454631726       -0.4947178198        3.0171543986
 C          2.0722184160       -0.4188722600        2.6284833244
 C          2.4659658802       -1.0132133602        1.4367610175
 C          1.5367833684       -1.6784349993        0.6460865275
 H          1.8736397112       -2.1244442295       -0.2741204616
 N          3.8117570963       -0.9731876344        1.0248767669
 S          4.2038465840       -0.3173386758       -0.4666004467
 O          3.5634561084       -1.0647415003       -1.5163516250
 O          5.6509302653       -0.3002477505       -0.4856203763
 C          3.5951369749        1.3582702516       -0.3986353427
 C          4.4858819041        2.3654847329       -0.0782580474
 C          4.0201115182        3.6647634234        0.0361571615
 C          2.6737375254        3.9332408721       -0.1615685805
 C          1.7940218392        2.9100792049       -0.4772135169
 C          2.2520769338        1.6065727613       -0.5976834998
 H          1.5752467024        0.8034542855       -0.8429028842
 H          0.7449960908        3.1070248001       -0.6321878547
 H          2.3076458876        4.9438524457       -0.0704884718
 H          4.7045804326        4.4613521728        0.2800024683
 H          5.5240211194        2.1103369258        0.0619591923
 H          4.4365605948       -0.5937151567        1.7229148584
 H          2.7962981095        0.0921524533        3.2450055704
 H          0.4314933334       -0.0391092428        3.9441519162
 H         -1.2175498605       -1.1948624856        2.5182446318
 H         -1.2832020775       -3.2392841839        0.7868711280
 C         -0.3238909427       -3.0024184328       -1.1078167138
 C          0.3243703728       -4.3529762508       -1.1171481242
 C         -1.0335228065       -4.1686893161       -1.7239038699
 H         -1.1292468241       -4.2055913891       -2.7987680297
 H         -1.8895161417       -4.5629933691       -1.1952573165
 H          1.1651960469       -4.5142848979       -1.7751503348
 H          0.3923960101       -4.8815342346       -0.1781705182
 H          0.0684750258       -2.2469776534       -1.7796289722
