  62
        -98.94120674
 C          1.6909283201        0.2247146044        0.2194118804
 C          2.8299012407        0.9856572858       -0.1411611005
 C          3.9663426701        0.2210938973       -0.6746821579
 C          3.8696394473       -1.1097307031       -0.8386969682
 C          4.9319327073       -2.0160324797       -1.3989194819
 C          5.9763420595       -2.4662083960       -0.3681541449
 C          6.9676567089       -1.3866762346        0.0683178733
 H          7.7671999169       -1.8889063158        0.6166779843
 H          7.4164580411       -0.9287935131       -0.8137540035
 C          6.3633819132       -0.2973358379        0.9653759051
 H          5.4130998924       -0.6478521435        1.3746202994
 H          7.0278125174       -0.1132830443        1.8127169067
 C          6.1362766938        1.0440886031        0.2682627565
 H          7.0972095805        1.4703793627       -0.0284800943
 H          5.6713432797        1.7273909397        0.9835002993
 C          5.2329031952        0.9671546209       -0.9693293544
 H          4.9599929763        1.9849012003       -1.2586407482
 H          5.7666735775        0.4998630607       -1.7964956707
 H          6.5409864767       -3.2880231010       -0.8145522894
 H          5.4556827139       -2.8584222363        0.5084644775
 H          5.4319013337       -1.5234040607       -2.2333293785
 H          4.4164877445       -2.9018921666       -1.7760591214
 O          2.7438461410       -1.8012518279       -0.5193861893
 C          1.6480506846       -1.1613827591        0.0321046686
 O          0.7021346012       -1.9250512101        0.3117002024
 O          2.9214007838        2.2377524817       -0.0378735351
 C          0.4340982923        0.8277214270        0.8249315582
 C         -0.4749237983        1.4169009152       -0.2272028295
 C         -0.0663443315        2.4693079520       -1.0393901961
 C         -0.9346666073        3.0082507115       -1.9705692330
 C         -2.2272058098        2.5288284625       -2.0924342034
 C         -2.6449221683        1.4776093860       -1.2851381901
 C         -1.7617503808        0.9197636266       -0.3716451823
 H         -2.0851404115        0.0915193485        0.2401120473
 N         -3.9442639609        0.9632923060       -1.3887825213
 S         -4.7615563365        0.4402385376       -0.0258874264
 O         -6.1595925751        0.5260869750       -0.3906337358
 O         -4.3648039488        1.1781483929        1.1500925057
 C         -4.3136286432       -1.2746537694        0.1311994950
 C         -3.8058122283       -1.7462130745        1.3248415093
 C         -3.4819982504       -3.0892510141        1.4327471114
 C         -3.6729915342       -3.9331283009        0.3501035162
 C         -4.1881194783       -3.4449804254       -0.8412658918
 C         -4.5135720035       -2.1033783948       -0.9548603366
 H         -4.9197356114       -1.6883499730       -1.8621940287
 H         -4.3340549597       -4.1058736250       -1.6805447094
 H         -3.4165917761       -4.9772250887        0.4364272493
 H         -3.0776142946       -3.4696091227        2.3570916224
 H         -3.6688532169       -1.0551693944        2.1422125462
 H         -4.5494910448        1.4547874762       -2.0299018709
 H         -2.9088090468        2.9631804223       -2.8081490476
 H         -0.6065724929        3.8219269087       -2.5998556636
 H          0.9360870081        2.8547361313       -0.9352773269
 H         -0.1030897777       -0.0121744342        1.2864526266
 C          0.7136703055        1.8611949661        1.9008056979
 C         -0.4044100984        2.2649132467        2.8128520357
 C          0.7325977159        1.4413856028        3.3379599864
 H          1.4437065071        1.9091416190        4.0024324748
 H          0.5491183902        0.3995886359        3.5582363691
 H         -0.4723147496        3.2986991711        3.1158537067
 H         -1.3648826194        1.7901457305        2.6716743665
 H          1.4133774674        2.6262788752        1.5919819386
