  62
        -98.94416769
 C         -2.6243079728       -1.1042821917        0.2039863839
 C         -2.7551200401       -0.3082250515       -0.9598016465
 C         -3.5857777543        0.8968071579       -0.8189827426
 C         -4.1591594964        1.1689979269        0.3674725362
 C         -4.9799320237        2.3903214176        0.6633282791
 C         -4.1050733164        3.5305922833        1.2032078131
 C         -2.8536982690        3.7982863922        0.3666551329
 H         -2.1899783987        2.9325063440        0.4303440565
 H         -2.3288959095        4.6387227226        0.8263504883
 C         -3.1323754733        4.1135623538       -1.1097025238
 H         -2.5218346450        4.9691264232       -1.4056974070
 H         -4.1766103726        4.4017276083       -1.2353389910
 C         -2.8014243783        2.9737021234       -2.0750016770
 H         -1.7849234231        2.6174351494       -1.8885291650
 H         -2.8267719141        3.3724026013       -3.0924786247
 C         -3.7486043334        1.7678872251       -2.0327373014
 H         -3.5129726475        1.1312659460       -2.8904510795
 H         -4.7818944369        2.1070748992       -2.1287283634
 H         -3.7905071721        3.2754355377        2.2180851196
 H         -4.7112600874        4.4367968647        1.2540874084
 H         -5.4890172298        2.7076501948       -0.2445317137
 H         -5.7260399249        2.1295137631        1.4157914824
 O         -4.0104752761        0.3786785292        1.4624605474
 C         -3.2310335663       -0.7661228970        1.4123896241
 O         -3.1531637105       -1.3843338501        2.4947886490
 H         -0.3197570187       -0.3390379399        1.0967382880
 C          0.2495621954       -0.9275186687        0.3860551419
 C         -0.3537362095       -2.0248063686       -0.2165872230
 C          0.3952007929       -2.7817833881       -1.1077387740
 C          1.7023530482       -2.4312564098       -1.3994617385
 C          2.2905244662       -1.3264902467       -0.8126168337
 C          1.5559775257       -0.5701533700        0.0915777199
 N          2.1442617713        0.5592774085        0.6903834955
 S          3.6187121626        0.3491603600        1.4698082719
 O          3.7584830093       -0.9952225626        1.9801115429
 O          3.6865301658        1.4167009672        2.4439396336
 C          4.8243316384        0.6477422006        0.1945624532
 C          5.7821351753       -0.3073936759       -0.0843930432
 C          6.7160071611       -0.0494408271       -1.0759867399
 C          6.6755903509        1.1522782647       -1.7662966916
 C          5.7084528697        2.1020429653       -1.4720207906
 C          4.7728797163        1.8512345840       -0.4810873922
 H          4.0074022333        2.5628410925       -0.2198340214
 H          5.6800076238        3.0352603256       -2.0111254695
 H          7.4020912120        1.3502684919       -2.5384972251
 H          7.4688248885       -0.7861165322       -1.3060569332
 H          5.7699290711       -1.2295749957        0.4743465787
 H          1.5104120838        1.0786275916        1.2805801256
 H          3.3051159117       -1.0461829595       -1.0438164183
 H          2.2702373769       -3.0259532579       -2.0984544299
 H         -0.0456911197       -3.6457466823       -1.5769841443
 C         -1.7760353466       -2.3617780521        0.1640318572
 H         -1.7642376339       -2.7541933696        1.1922606424
 C         -2.4154758349       -3.3931406473       -0.7428239139
 C         -2.2431531628       -4.8555970424       -0.4664020222
 C         -3.5662723313       -4.1970659485       -0.2196075435
 H         -4.3870631288       -4.4176703653       -0.8853078053
 H         -3.8693595243       -4.0196505457        0.8024444141
 H         -1.6506696311       -5.1367549140        0.3913014426
 H         -2.1587842384       -5.5325371990       -1.3031492890
 H         -2.4614487274       -3.0660694442       -1.7750477316
 O         -2.2065507990       -0.5857016855       -2.0570903303
