  62
        -98.93633218
 C         -1.4395933211       -1.3743373695        0.2923202505
 C         -2.1454842407       -0.9726627393       -0.8650912896
 C         -3.2229057404        0.0142581111       -0.6593955199
 C         -3.4730518706        0.4633051013        0.5829041900
 C         -4.4782796603        1.5034581516        0.9941181397
 C         -3.8227840598        2.8931809514        1.0632472198
 C         -3.8015592493        3.6617978513       -0.2577107002
 H         -4.8144043991        3.9924922017       -0.4967265605
 H         -3.1934489290        4.5565253111       -0.1046634701
 C         -3.2457522393        2.8891805911       -1.4573057001
 H         -2.3535555295        2.3354672208       -1.1582750798
 H         -2.9352610189        3.6167629109       -2.2099564300
 C         -4.2682853995        1.9300918114       -2.0854259602
 H         -4.3153491092        2.1082242513       -3.1617065403
 H         -5.2582666395        2.1591228817       -1.6911704705
 C         -3.9697601100        0.4345106313       -1.8956003201
 H         -4.9095198602       -0.1254287384       -1.9447763303
 H         -3.3507644900        0.0787960610       -2.7256345999
 H         -4.3589687998        3.4983750416        1.7969318597
 H         -2.8013233200        2.7637875711        1.4305718300
 H         -5.3309480702        1.5034442419        0.3218343195
 H         -4.8186321006        1.2298497618        1.9949842097
 O         -2.7674805009        0.0480723911        1.6705748702
 C         -1.7362852612       -0.8677949993        1.5573015605
 O         -1.1675705516       -1.1427776694        2.6313127706
 O         -1.8836510606       -1.4025834894       -2.0192418296
 C         -0.3069533514       -2.3747875298        0.1877293108
 C          0.8056688189       -1.8733631303       -0.7020082189
 C          1.6620975288       -2.7408064406       -1.3714299287
 C          2.7202924391       -2.2548749410       -2.1198563985
 C          2.9508854796       -0.8942703011       -2.2211240585
 C          2.0959443297       -0.0208909007       -1.5664913087
 C          1.0433274994       -0.5100492003       -0.8080576190
 H          0.3933139995        0.1834170699       -0.2877486591
 N          2.3526067302        1.3738236092       -1.6317533188
 S          3.5371882802        1.8616165088       -0.5472842085
 O          3.5123343506        3.3064345988       -0.5469436886
 O          4.7798874800        1.2390057484       -0.9223549682
 C          2.9714939596        1.2262337391        1.0197054114
 C          3.2932807591       -0.0693818910        1.3711731715
 C          2.7367887086       -0.6079112908        2.5201704014
 C          1.8685862687        0.1498349396        3.2904487812
 C          1.5607206193        1.4517261597        2.9266747411
 C          2.1091057397        1.9947083294        1.7761212812
 H          1.8892702701        3.0010292595        1.4548575011
 H          0.8823266893        2.0352440699        3.5286768009
 H          1.4151291284       -0.2798753302        4.1692255111
 H          2.9700762982       -1.6212941808        2.8047299815
 H          3.9676387390       -0.6291713613        0.7434194817
 H          1.5247685204        1.9299759795       -1.4664700890
 H          3.7807254898       -0.4963100514       -2.7816008484
 H          3.3757374090       -2.9446514312       -2.6290843783
 H          1.5010750684       -3.8043434605       -1.3013118887
 H          0.1034597383       -2.4699149399        1.2047786609
 C         -0.8409965818       -3.7260512897       -0.2486143892
 C         -0.2621850824       -4.9923511098        0.3054482510
 C         -1.6247293623       -4.5410964994        0.7347139607
 H         -2.4878910524       -5.0858563791        0.3829159905
 H         -1.7403699524       -4.1363499193        1.7299461806
 H         -0.1908859225       -5.8529165999       -0.3427403490
 H          0.5427684175       -4.9075106601        1.0198386312
 H         -1.1796852116       -3.7242621996       -1.2782083493
