  62
        -98.93442729
 C         -2.4422606248       -1.4781578053        0.2763560117
 C         -2.7419721979       -0.6048904124       -0.7940425783
 C         -3.6729455028        0.5094226258       -0.5079974735
 C         -4.1581009134        0.6540738460        0.7382561166
 C         -5.0717839950        1.7253444010        1.2720718029
 C         -4.3480567768        3.0612141141        1.5028374661
 C         -3.4168609259        3.4904008074        0.3720927959
 H         -2.8937554703        4.3940018898        0.6969128378
 H         -2.6573122234        2.7204774971        0.2199708450
 C         -4.1053382800        3.7997958111       -0.9554064713
 H         -4.8407443076        4.5922686736       -0.8002570812
 H         -3.3395027016        4.1859158331       -1.6332961817
 C         -4.7968017617        2.6203057965       -1.6432570793
 H         -5.7560870953        2.4023009069       -1.1818855851
 H         -5.0092749314        2.9243029240       -2.6723803592
 C         -3.9533276060        1.3524644415       -1.7293733276
 H         -4.4171733840        0.6732957786       -2.4549614510
 H         -2.9751100962        1.6033338649       -2.1560470563
 H         -3.7462825520        2.9682325406        2.4103638153
 H         -5.0983092884        3.8352857767        1.6727193798
 H         -5.9233265377        1.8558084195        0.6110298861
 H         -5.4473710372        1.3643019340        2.2320494586
 O         -3.8208734194       -0.1984551606        1.7481248454
 C         -2.9733243920       -1.2677345411        1.5518190593
 O         -2.7740476820       -1.9597332652        2.5704071617
 H         -0.1514813914       -0.8075095504       -1.2223618205
 C          0.4573224337       -1.2568608442       -0.4509876472
 C         -0.0873775254       -2.2588686170        0.3414990736
 C          0.7027537607       -2.8246603091        1.3342357874
 C          2.0055014301       -2.3967822685        1.5250023120
 C          2.5448157623       -1.4004275413        0.7312452600
 C          1.7607479699       -0.8247623179       -0.2602812610
 N          2.3004379343        0.1921068633       -1.0726540753
 S          2.9077846700        1.5437571390       -0.2778212332
 O          2.2418929410        1.7554340339        0.9876331510
 O          2.8257944089        2.6234013046       -1.2374637355
 C          4.6197418421        1.1347618755       -0.0091713191
 C          5.1476073421        1.1821767915        1.2661002993
 C          6.4839697360        0.8623298579        1.4503289454
 C          7.2640084763        0.5035469965        0.3616807894
 C          6.7189916822        0.4634604856       -0.9132577731
 C          5.3843052607        0.7829355981       -1.1045207572
 H          4.9222165837        0.7661366498       -2.0774056446
 H          7.3287514296        0.1834639206       -1.7570317758
 H          8.3029010402        0.2535013577        0.5078854555
 H          6.9092057569        0.8934793513        2.4406170220
 H          4.4999238138        1.4594686260        2.0825485324
 H          1.6712071899        0.4787044706       -1.8100931783
 H          3.5573640584       -1.0611219995        0.8774878589
 H          2.6072869565       -2.8428907814        2.3019447401
 H          0.2825831504       -3.5899757655        1.9703586969
 C         -1.5205457070       -2.6818181344        0.1463079391
 H         -1.7902650822       -3.3355528568        0.9903487402
 C         -1.7539163040       -3.4725185001       -1.1350017800
 C         -0.7260515359       -3.6412619010       -2.2100668226
 C         -1.0727317452       -4.7961003726       -1.3227477168
 H         -1.6398076397       -5.6179830646       -1.7325455354
 H         -0.3469128695       -5.0862163074       -0.5778851883
 H         -1.0722260488       -3.6467624379       -3.2324753110
 H          0.2360951079       -3.1716727745       -2.0799636377
 H         -2.7846852481       -3.4070862773       -1.4675209028
 O         -2.2640071126       -0.7196429305       -1.9541042466
