  62
        -98.93300088
 C          2.0353204058        1.1808688335       -0.3146348374
 C          2.7114113267        0.4541629829        0.6959663196
 C          3.0825492743       -0.9397721556        0.3997548722
 C          2.7179224984       -1.4684750372       -0.7815558687
 C          2.9665277401       -2.8566611051       -1.3165476612
 C          2.7502015143       -4.0218646816       -0.3388595086
 C          4.0499326142       -4.7019711663        0.0961703465
 H          3.8214397010       -5.7244323104        0.4047377858
 H          4.7143923133       -4.7627760841       -0.7681770021
 C          4.7849856942       -4.0244086959        1.2511984711
 H          4.2267097811       -4.1818606984        2.1764530845
 H          5.7510691834       -4.5217151894        1.3646241705
 C          5.0232563313       -2.5227466610        1.0824683637
 H          5.8658482356       -2.2443354429        1.7188250499
 H          5.3092712615       -2.2941951300        0.0564506529
 C          3.8215357605       -1.6593478239        1.4949979122
 H          4.1524523212       -0.8647204087        2.1710756062
 H          3.1061863015       -2.2589960590        2.0654788593
 H          2.1888588447       -3.6755535493        0.5279034733
 H          2.1326757958       -4.7668017228       -0.8436595783
 H          3.9812037664       -2.8949707495       -1.7216341518
 H          2.2873606484       -2.9548845642       -2.1667867054
 O          2.0527068534       -0.7408510995       -1.7221966600
 C          1.6897922764        0.5826113002       -1.5260161622
 O          1.0936064970        1.0799436139       -2.5019932111
 O          3.0107610213        0.9628251318        1.8117298030
 C          1.6514859553        2.6080202476        0.0313218234
 C          0.2905144226        2.6503066521        0.6876865942
 C          0.0807933683        3.4037942539        1.8371248271
 C         -1.1599321903        3.4270729510        2.4480505210
 C         -2.2069891060        2.6817254360        1.9379235320
 C         -2.0084615609        1.9289332903        0.7857805594
 C         -0.7719731798        1.9335339553        0.1573854383
 H         -0.6412879445        1.3480406270       -0.7405836731
 N         -3.0483291797        1.1615189883        0.2376592368
 S         -2.6521023696       -0.3509870467       -0.4083927548
 O         -1.6084400457       -0.9674300524        0.3801746577
 O         -2.4031010540       -0.2053324416       -1.8199133099
 C         -4.1977301264       -1.2103682972       -0.1669814829
 C         -5.2070160827       -1.0379007067       -1.0955764110
 C         -6.4227313764       -1.6704501419       -0.8890967867
 C         -6.6086181120       -2.4597032491        0.2363035576
 C         -5.5860244073       -2.6251918640        1.1583401881
 C         -4.3682070635       -1.9937491635        0.9587588237
 H         -3.5416527274       -2.0980505700        1.6433849383
 H         -5.7316669252       -3.2420306173        2.0304109499
 H         -7.5555180537       -2.9510954311        0.3944459482
 H         -7.2186920057       -1.5461697486       -1.6054005296
 H         -5.0109755672       -0.4228391346       -1.9584223657
 H         -3.8588326120        1.1085852249        0.8400209015
 H         -3.1701340138        2.6790850537        2.4252180701
 H         -1.3081246748        4.0148932284        3.3410167823
 H          0.9045660582        3.9573333725        2.2623208145
 H          2.3875217785        2.9347834163        0.7798625498
 C          1.6947955177        3.5739344447       -1.1358781780
 C          1.9231001856        5.0311353498       -0.8720363938
 C          2.9964509830        4.2091303597       -1.5186159507
 H          3.2055364292        4.3558421776       -2.5673542465
 H          3.8666628686        3.9531837691       -0.9318225952
 H          1.3917197085        5.7500752318       -1.4761395537
 H          2.0714909739        5.3392894436        0.1515209246
 H          1.0179999867        3.3048866087       -1.9365188217
