  62
        -98.94428331
 C         -1.9710016501       -1.3395941994        0.0376676996
 C         -2.2745878300       -0.3791652491       -0.9574137601
 C         -3.6614351999        0.1119574813       -0.9750549997
 C         -4.5479448798       -0.3619293286       -0.0817989895
 C         -5.9719375996        0.0940384717        0.0442107809
 C         -6.0983254590        1.2537945516        1.0419604612
 C         -5.0945290588        2.3828980513        0.8079925012
 H         -4.0859495988        2.0110811610        1.0040932609
 H         -5.2990377183        3.1585039012        1.5492943414
 C         -5.1438015189        2.9953964616       -0.5987730186
 H         -5.1064590386        4.0830882916       -0.5080645484
 H         -6.0895159291        2.7431249820       -1.0799054084
 C         -3.9859965693        2.5851018915       -1.5107538590
 H         -3.0370563291        2.7504310111       -0.9936639592
 H         -3.9978315693        3.2373302717       -2.3882524589
 C         -4.0156346799        1.1369520816       -2.0158130793
 H         -3.2588675101        1.0435396216       -2.8001238196
 H         -4.9919055100        0.9202430220       -2.4539084491
 H         -5.9431343789        0.8622523513        2.0499777811
 H         -7.1138360689        1.6497776619        0.9840858616
 H         -6.3385084498        0.4005456021       -0.9335243089
 H         -6.5711506198       -0.7458181982        0.3999597909
 O         -4.2254646198       -1.2919205290        0.8517165002
 C         -2.9387534800       -1.7904346094        0.9424972997
 O         -2.7801620300       -2.6276574496        1.8528765595
 H          0.5573676602        0.2972031800       -0.8106526207
 C          0.8440633704        0.1343052097        0.2172547592
 C          0.3309833203       -0.9584898503        0.9016297691
 C          0.6836667006       -1.1332873507        2.2349055889
 C          1.5280339610       -0.2362819411        2.8659610389
 C          2.0387187411        0.8512379289        2.1800493790
 C          1.6858329308        1.0370380693        0.8498830192
 N          2.2131683210        2.1364330693        0.1384310693
 S          3.8849485610        2.1637327388        0.0091537888
 O          4.4493817914        2.5715283784        1.2709560688
 O          4.1780207709        3.0118898090       -1.1238505311
 C          4.3226350904        0.4704226388       -0.3390312817
 C          4.7305130504       -0.3551102116        0.6889489280
 C          4.9773403399       -1.6908498416        0.4156070677
 C          4.8115627694       -2.1752067212       -0.8723426724
 C          4.4058641094       -1.3314752309       -1.8949974521
 C          4.1516732599        0.0034539891       -1.6269469717
 H          3.8368289899        0.6910649594       -2.3957519515
 H          4.2821825591       -1.7089837106       -2.8976440821
 H          5.0006671591       -3.2164354213       -1.0811485027
 H          5.2935115499       -2.3494585419        1.2082952475
 H          4.8516053708        0.0614945882        1.6751145681
 H          1.7978281008        2.2395092696       -0.7771893806
 H          2.7048255915        1.5567144686        2.6502886090
 H          1.7915286712       -0.3853316014        3.9020445588
 H          0.2792837905       -1.9752156707        2.7783178588
 C         -0.5847927802       -1.9424170499        0.2137820291
 H         -0.7210144603       -2.7977261000        0.8882948989
 C          0.0153165793       -2.4454308098       -1.0852967312
 C          1.2007456291       -3.3594856301       -1.0252557717
 C         -0.1341208112       -3.8893706297       -1.4534075215
 H         -0.2818784016       -4.1424832894       -2.4926091615
 H         -0.6748912812       -4.5272688896       -0.7693535015
 H          1.5672224592       -3.6357530405       -0.0483416819
 H          1.9739959489       -3.2473458702       -1.7689745719
 H         -0.0248774207       -1.7240929796       -1.8901459510
 O         -1.4498408101        0.0596568308       -1.8036768003
