  62
        -98.93431615
 C         -2.2960369891       -0.7628240632       -0.1635106547
 C         -3.5471355289       -1.0789775992        0.4126624196
 C         -4.7253033458       -0.3608182371       -0.1106445918
 C         -4.5477290526        0.5353881620       -1.0992995538
 C         -5.5816364363        1.4121409392       -1.7536886228
 C         -5.9811026329        2.6089665294       -0.8741253878
 C         -6.1890408800        2.2820862744        0.6025952911
 H         -5.2777545348        1.8323765114        1.0013753149
 H         -6.3428847387        3.2256192864        1.1329038423
 C         -7.3794454865        1.3761658100        0.9081730977
 H         -8.2948331876        1.8591046079        0.5587450238
 H         -7.4467926980        1.2839374497        1.9952178945
 C         -7.3193301427       -0.0321950054        0.3140762970
 H         -7.5485136427       -0.0177557677       -0.7479202313
 H         -8.1069275461       -0.6209818481        0.7935124561
 C         -6.0111364039       -0.7771327188        0.5626311755
 H         -5.7985216157       -0.7780874302        1.6377350101
 H         -6.1556795989       -1.8315684653        0.2974067925
 H         -6.8909820728        3.0505119015       -1.2837685126
 H         -5.1844981852        3.3540398215       -0.9392661831
 H         -6.4510449341        0.8219244193       -2.0272873214
 H         -5.1333324690        1.7917361372       -2.6743859212
 O         -3.3196870169        0.8057903907       -1.6277191906
 C         -2.1696632753        0.1823540195       -1.1804155158
 O         -1.1284880860        0.5475887841       -1.7589548419
 O         -3.6813767748       -1.9222696234        1.3410236829
 C         -1.0513475819       -1.4605625845        0.3549409079
 C         -0.1060086051       -0.4356032372        0.9306529690
 C         -0.5484723834        0.3534774381        1.9905862349
 C          0.2707862529        1.3171160817        2.5441253846
 C          1.5519479014        1.5106927096        2.0573536901
 C          2.0009272916        0.7337668094        0.9963684718
 C          1.1753057871       -0.2368656878        0.4441136511
 H          1.5501795974       -0.8245414394       -0.3765366817
 N          3.2815320281        0.9382261632        0.4594740367
 S          4.1341133590       -0.3686215141       -0.1780977956
 O          3.6716744801       -0.6352194379       -1.5165489842
 O          4.0992811188       -1.4820949073        0.7440176055
 C          5.7726835959        0.3331136709       -0.2396637059
 C          6.6897630992        0.0192097249        0.7453129150
 C          7.9488050727        0.5973471234        0.6976306510
 C          8.2663088001        1.4767943727       -0.3263730227
 C          7.3353812971        1.7816310797       -1.3086338829
 C          6.0755130600        1.2061395665       -1.2677833743
 H          5.3226447013        1.4057153723       -2.0126928814
 H          7.5863969493        2.4638416874       -2.1048053137
 H          9.2463448058        1.9257660266       -0.3612925285
 H          8.6757852110        0.3601727881        1.4575665345
 H          6.4002843424       -0.6750390283        1.5176780122
 H          3.8678111652        1.5169028128        1.0451648362
 H          2.1939235413        2.2640425901        2.4880212362
 H         -0.0865533882        1.9199568031        3.3655062268
 H         -1.5492041049        0.1982554859        2.3708800017
 H         -1.3982268262       -2.1050838659        1.1764165471
 C         -0.4303618362       -2.3311016025       -0.7154938197
 C          0.4696937704       -3.4637249114       -0.3249348752
 C         -0.8958417766       -3.7461418402       -0.8737296951
 H         -0.9779899657       -4.1529762217       -1.8704069933
 H         -1.6572846552       -4.0974520324       -0.1927682192
 H          1.3326587753       -3.6702864724       -0.9404847830
 H          0.6399338547       -3.6239068825        0.7292220337
 H         -0.1899256430       -1.7810168270       -1.6189811141
