  62
        -98.93811463
 C          1.9161062701        0.8110318002        0.2227893995
 C          2.4149782601       -0.3973349201       -0.3144993499
 C          3.8075274102       -0.7425456499        0.0287091502
 C          4.5180079402        0.0788022606        0.8240868497
 C          5.9232538403       -0.0374197491        1.3769673496
 C          6.9125221603       -1.0438587493        0.7953487801
 C          7.3532537201       -0.7514946300       -0.6383193001
 H          7.9685514401        0.1518128000       -0.6355255306
 H          7.9797753301       -1.5790903402       -0.9781708297
 C          6.2244929900       -0.5370480606       -1.6435651801
 H          5.6546642600        0.3535574395       -1.3709599405
 H          6.6786489000       -0.3421153411       -2.6189422103
 C          5.2614454501       -1.7115895108       -1.8062677994
 H          5.8234327301       -2.6185052908       -2.0377040390
 H          4.6163720000       -1.4914401712       -2.6611348895
 C          4.3489289402       -1.9941744302       -0.5996423592
 H          3.4811117602       -2.5570495404       -0.9562267989
 H          4.8525246803       -2.6096404598        0.1421290511
 H          6.5155008503       -2.0517131993        0.8735318906
 H          7.8032697303       -1.0051201689        1.4284318300
 H          5.8043616203       -0.2482987885        2.4456404098
 H          6.3533098702        0.9668647109        1.3081197091
 O          3.9834842302        1.2277800208        1.3333172791
 C          2.6891114602        1.6226132506        1.0514013390
 O          2.3474812201        2.6941786509        1.5905837885
 O          1.7338528401       -1.1627102405       -1.0460913395
 C          0.4924319401        1.2529626799       -0.0675903206
 C         -0.4696432598        0.2285878002        0.4814620300
 C         -0.4556198897       -0.0318847191        1.8495699001
 C         -1.3211502296       -0.9536867588        2.4060835507
 C         -2.2242977797       -1.6373261293        1.6094284611
 C         -2.2445713498       -1.3854696600        0.2459955510
 C         -1.3770815299       -0.4546204003       -0.3111610296
 H         -1.4078886399       -0.2754407508       -1.3742655297
 N         -3.1937208298       -2.0529204705       -0.5615075786
 S         -4.7846532498       -1.6276317404       -0.2397339987
 O         -5.1940147397       -2.2306524898        1.0024598016
 O         -5.5394118399       -2.0037309710       -1.4135227885
 C         -4.7200492499        0.1471684097       -0.0712293697
 C         -4.6912566600        0.9153680791       -1.2181216701
 C         -4.5338799900        2.2867784792       -1.1029231908
 C         -4.3960718200        2.8616423698        0.1513773589
 C         -4.4265399798        2.0764451304        1.2933209493
 C         -4.5880697198        0.7046149304        1.1844109800
 H         -4.6166364797        0.0598457908        2.0472248604
 H         -4.3176876598        2.5265775709        2.2668739591
 H         -4.2640877300        3.9287854599        0.2394713883
 H         -4.5113223101        2.9015645287       -1.9884042911
 H         -4.8051895900        0.4310566786       -2.1746989698
 H         -3.0101458299       -1.9485073110       -1.5498525687
 H         -2.9180149596       -2.3511087091        2.0236122415
 H         -1.2946589995       -1.1429954683        3.4685850908
 H          0.2494304603        0.5033399713        2.4714089398
 H          0.3469755901        2.1850443302        0.4963987389
 C          0.3057576400        1.5419775592       -1.5418460008
 C         -0.8297458401        2.4118610689       -1.9897979511
 C          0.5774347199        2.9235873589       -2.0522949715
 H          1.0454583998        3.0324335184       -3.0192489516
 H          0.8869128199        3.6673642893       -1.3326796019
 H         -1.3277154202        2.1734351984       -2.9174979110
 H         -1.4835531701        2.8078194292       -1.2275159413
 H          0.5964305300        0.7106105988       -2.1735868204
