  62
        -98.94109891
 C          1.6824250938        0.3554986315        0.9491378011
 C          2.9052717285        0.9934127326        0.6274405164
 C          4.0678333569        0.1066565071        0.4591002768
 C          3.9208446911       -1.2215532032        0.6075907396
 C          5.0073621967       -2.2361876109        0.4026989148
 C          5.0321910461       -2.7395842134       -1.0473574613
 C          5.0095555636       -1.6219974921       -2.0902230266
 H          5.0612401249       -2.0940754606       -3.0737644551
 H          4.0508192425       -1.1010963686       -2.0343381696
 C          6.1484762968       -0.6019929035       -1.9528967653
 H          6.9499226749       -1.0209486866       -1.3432672556
 H          6.5639577389       -0.4055991368       -2.9435997217
 C          5.7238533262        0.7482769203       -1.3726313490
 H          6.5439090047        1.4556863699       -1.5224689825
 H          4.8596779884        1.1281571064       -1.9234744665
 C          5.3821526309        0.7537892443        0.1227005273
 H          5.2925245877        1.7973260495        0.4382251657
 H          6.1946229334        0.2929704090        0.6879932592
 H          5.9263595897       -3.3502483383       -1.1852706616
 H          4.1581735316       -3.3748152075       -1.2082483179
 H          4.8189993231       -3.0805749027        1.0678117322
 H          5.9663815968       -1.7908809122        0.6601290736
 O          2.7333193679       -1.7998784468        0.9188175521
 C          1.5941104852       -1.0340576533        1.0888557450
 O          0.5736923809       -1.6950918243        1.3668856497
 O          3.0487880036        2.2365962110        0.4818939890
 C          0.3755523602        1.1033347673        1.1586782147
 C         -0.2926989874        1.4304514293       -0.1555144503
 C          0.2998282270        2.2797261042       -1.0840388882
 C         -0.3487524907        2.5785698772       -2.2679438281
 C         -1.6026739198        2.0586856796       -2.5377542227
 C         -2.2023327009        1.2077255796       -1.6169304583
 C         -1.5372537944        0.8887462654       -0.4414112255
 H         -1.9990328318        0.2139519918        0.2630858883
 N         -3.4646438641        0.6542755653       -1.8670218842
 S         -4.5493723623        0.3975870804       -0.6204988033
 O         -5.8403738567        0.3529100988       -1.2734344316
 O         -4.4014902440        1.3802930231        0.4271014763
 C         -4.1543736552       -1.2280309462       -0.0145257434
 C         -3.9440631525       -1.4258145887        1.3351369740
 C         -3.6575943100       -2.7031113437        1.7896850318
 C         -3.5886339858       -3.7551817957        0.8902494571
 C         -3.8066227923       -3.5409914185       -0.4623455460
 C         -4.0938362953       -2.2664315392       -0.9224223654
 H         -4.2720639096       -2.0617510679       -1.9649648785
 H         -3.7508994878       -4.3629948528       -1.1578543039
 H         -3.3612571830       -4.7473337428        1.2470271771
 H         -3.4833420516       -2.8707958255        2.8404391055
 H         -4.0013063193       -0.5787516434        2.0011150020
 H         -3.9180752397        0.9793820534       -2.7080608161
 H         -2.1142512818        2.3070018624       -3.4553936222
 H          0.1211141040        3.2354291309       -2.9845791821
 H          1.2725370400        2.6950526704       -0.8703356135
 H         -0.2813826090        0.4042250595        1.6940161301
 C          0.5171413594        2.3586705428        1.9991960771
 C         -0.7208670687        2.9775530238        2.5730362497
 C          0.2611505034        2.2900365461        3.4728527196
 H          0.8687435309        2.8941285848        4.1299644881
 H         -0.0131531148        1.3318233908        3.8900207420
 H         -0.7866643610        4.0542368875        2.6119730333
 H         -1.6648101603        2.4911446439        2.3725264788
 H          1.3003570620        3.0218250273        1.6574734123
