  62
        -98.94643191
 C          1.5559434659        1.0963416124        0.0314058044
 C          2.6106532050        0.8184308410        0.9379127890
 C          3.3314208185       -0.4431062349        0.7255764355
 C          2.9349535677       -1.2675808774       -0.2608240755
 C          3.5995324149       -2.5665384271       -0.6115102450
 C          4.6873454252       -2.3636702794       -1.6756391989
 C          5.6576256689       -1.2257500496       -1.3585277571
 H          6.3975137503       -1.1961913286       -2.1614056209
 H          5.1167100000       -0.2770186659       -1.3860273207
 C          6.3745945117       -1.3601257923       -0.0078209949
 H          6.3109340611       -2.3901538300        0.3449108797
 H          7.4330551898       -1.1315027324       -0.1493358207
 C          5.8574688315       -0.4183950425        1.0814029999
 H          6.5665468308       -0.4395935503        1.9132399998
 H          5.8335653322        0.6052844075        0.6990742835
 C          4.4734573829       -0.7537499835        1.6515045366
 H          4.3190503216       -0.1308633679        2.5373536838
 H          4.4471657531       -1.8007469194        1.9599041399
 H          5.2422664338       -3.2972562119       -1.7846180620
 H          4.2027566148       -2.1436303584       -2.6297787261
 H          2.8439198428       -3.2480916921       -1.0057668916
 H          4.0329346733       -3.0011472435        0.2870138187
 O          1.8997152688       -0.9832200458       -1.0897161059
 C          1.1950844701        0.2082642950       -0.9816972034
 O          0.2963349350        0.3386364344       -1.8341888583
 O          2.9323973646        1.5905837580        1.8793330144
 C          0.7635841364        2.3789877174        0.2315626726
 C         -0.6164236464        1.9773157167        0.6874432726
 C         -0.8275952418        1.6539621494        2.0252595105
 C         -2.0520704847        1.1756374597        2.4526879432
 C         -3.0841263538        0.9823077283        1.5503467411
 C         -2.8767016742        1.2897036583        0.2126365970
 C         -1.6604184223        1.8094846171       -0.2084516807
 H         -1.5164890587        2.0371710342       -1.2523078333
 N         -3.8968341653        1.0336133840       -0.7224562091
 S         -4.6216978575       -0.4730852010       -0.6274549927
 O         -5.0139945893       -0.7996529197       -1.9811091805
 O         -5.6977874285       -0.4218026862        0.3327505509
 C         -3.3669690511       -1.6049446556       -0.0454528277
 C         -2.1485561437       -1.6516440022       -0.6929948482
 C         -1.1800910295       -2.5290278851       -0.2325028884
 C         -1.4427545312       -3.3446059469        0.8568096514
 C         -2.6744016033       -3.2915093825        1.4910373514
 C         -3.6454054034       -2.4128960901        1.0389472453
 H         -4.6122798711       -2.3316376153        1.5087017518
 H         -2.8779012430       -3.9271455492        2.3377283852
 H         -0.6820394999       -4.0219929522        1.2120643522
 H         -0.2211623039       -2.5536668026       -0.7263518718
 H         -1.9411563009       -1.0038350727       -1.5301616113
 H         -3.6215176289        1.2325142080       -1.6738332787
 H         -4.0401026351        0.5907209516        1.8588723661
 H         -2.2027573027        0.9370574426        3.4943443172
 H         -0.0106718553        1.7679505014        2.7238448753
 H          1.2619125814        2.9053672232        1.0561123724
 C          0.7785460597        3.2662188737       -0.9947474959
 C          0.3268705674        4.6900710683       -0.8730284040
 C          1.7777263422        4.3791187359       -1.0816213840
 H          2.2204114724        4.5997249904       -2.0414977684
 H          2.4536803311        4.5107676555       -0.2494825039
 H         -0.2283677898        5.1280719716       -1.6883966148
 H          0.0161406477        5.0308579726        0.1029993077
 H          0.5503156104        2.7390915405       -1.9130826004
