  62
        -98.94288300
 C         -1.9981106496       -0.4713348871        0.8928150808
 C         -2.8871923110       -1.1625594537        0.0333617108
 C         -4.2761951436       -0.6767123064        0.0204643046
 C         -4.6282768987        0.3571486923        0.8044882523
 C         -5.9905090077        0.9855735633        0.8409799343
 C         -6.0946340292        2.1452139222       -0.1596282291
 C         -5.5978592957        1.7971039610       -1.5629087471
 H         -5.7477578350        2.6797245646       -2.1885881361
 H         -4.5219453100        1.6109778999       -1.5237807504
 C         -6.2986633540        0.5908197469       -2.2034663645
 H         -7.2371313681        0.3900070786       -1.6854141979
 H         -6.5462383428        0.8390394801       -3.2377040096
 C         -5.4569335642       -0.6859908960       -2.2405087945
 H         -4.4779274369       -0.4661648065       -2.6735177730
 H         -5.9543522327       -1.4014331543       -2.9007156263
 C         -5.2418212309       -1.3817823396       -0.8905422791
 H         -6.2030437597       -1.5280079836       -0.3941261418
 H         -4.8038443332       -2.3640861924       -1.0893296110
 H         -7.1369478406        2.4655877063       -0.2092553889
 H         -5.4997860306        2.9811064674        0.2161522393
 H         -6.7402340739        0.2294377276        0.6162221846
 H         -6.1649521783        1.3692514840        1.8476811001
 O         -3.7535085025        0.9854171201        1.6310357670
 C         -2.4275017597        0.5955176286        1.6887784558
 O         -1.7364678075        1.2624107666        2.4863838106
 H          1.4611893358        0.9956380232        1.1965908897
 C          1.2831749379        0.6792370893        0.1795964119
 C          0.2913966994       -0.2504535122       -0.0980281917
 C          0.0794490719       -0.6280702313       -1.4206958865
 C          0.8395205595       -0.0784767702       -2.4361763254
 C          1.8385249146        0.8372305910       -2.1537820241
 C          2.0619076511        1.2171492329       -0.8366324156
 N          3.0784914987        2.1374338025       -0.5109390862
 S          4.2679216239        1.6389876946        0.5576862853
 O          3.6981624607        1.4145312044        1.8607133841
 O          5.2989310700        2.6483708650        0.4683718508
 C          4.8573724582        0.1046867450       -0.1363215303
 C          4.1701988779       -1.0626259853        0.1315834495
 C          4.5826611778       -2.2361502907       -0.4794779948
 C          5.6689136168       -2.2234088505       -1.3408484463
 C          6.3511458724       -1.0434257825       -1.5963923205
 C          5.9392358042        0.1346393114       -0.9947196223
 H          6.4411151395        1.0740574486       -1.1617420655
 H          7.1978834484       -1.0374175164       -2.2637166888
 H          5.9854193033       -3.1394533490       -1.8141250557
 H          4.0498006758       -3.1521587224       -0.2813924550
 H          3.3308908557       -1.0378796997        0.8070038651
 H          3.5103091362        2.5657051467       -1.3182135768
 H          2.4367729966        1.2604193303       -2.9466723065
 H          0.6591662403       -0.3733893056       -3.4586910321
 H         -0.6964340097       -1.3440164183       -1.6432792630
 C         -0.5261269330       -0.8293757860        1.0322206863
 H         -0.1943685694       -0.3451453652        1.9611360377
 C         -0.2831644326       -2.3209330616        1.1621496426
 C          0.9381795223       -2.7949505410        1.8882410660
 C         -0.4166118010       -2.9667435500        2.5065111852
 H         -0.8399522227       -3.9582570682        2.5619357631
 H         -0.6801435511       -2.3328050962        3.3412892800
 H          1.4492605318       -3.6720486245        1.5223180196
 H          1.5916107874       -2.0473131916        2.3146265221
 H         -0.6159932357       -2.8893582106        0.3042574634
 O         -2.5638932172       -2.1360393794       -0.6964189696
