  62
        -98.94450229
 C          1.9291726153        1.4216334961       -0.0453381743
 C          2.7103487913        0.6746893624        0.8778513731
 C          3.5185537122       -0.4178952073        0.3229714261
 C          3.5143525064       -0.6253171162       -1.0059658480
 C          4.2582649570       -1.7238046102       -1.7078442456
 C          3.3849692004       -2.9779314421       -1.8546767588
 C          2.6874292247       -3.3930000351       -0.5595210776
 H          1.9797179083       -2.6098889094       -0.2772359577
 H          2.1097082694       -4.2945672483       -0.7756205862
 C          3.6369092276       -3.6607297980        0.6168403087
 H          4.6513259682       -3.8117688359        0.2460627655
 H          3.3316281103       -4.5859991670        1.1098333207
 C          3.6466892799       -2.5666612405        1.6865710104
 H          2.6224553385       -2.3464374751        1.9977541186
 H          4.1787508276       -2.9517451174        2.5603030021
 C          4.3203790591       -1.2480302806        1.2853005780
 H          4.4280654571       -0.6403882476        2.1883625735
 H          5.3164218799       -1.4490262983        0.8858451023
 H          4.0109089910       -3.7965601918       -2.2141711070
 H          2.6189144193       -2.7806915279       -2.6085339147
 H          4.5412970536       -1.3692235524       -2.7003957967
 H          5.1604671902       -1.9597067622       -1.1468519048
 O          2.7776906396        0.1232602165       -1.8627919165
 C          1.9492964994        1.1417301654       -1.4115438262
 O          1.3065543514        1.6912778719       -2.3302185370
 H         -0.6668604464        1.6795320207       -1.3337589148
 C         -1.1130307595        1.7043139005       -0.3506142021
 C         -0.3517760029        2.1212720049        0.7320905800
 C         -0.9386540397        2.1335271638        1.9919802972
 C         -2.2594001057        1.7538959328        2.1590654997
 C         -3.0167833108        1.3431516410        1.0771265653
 C         -2.4322352482        1.3089485490       -0.1829074900
 N         -3.1789166782        0.8576188200       -1.2841972451
 S         -4.1119670573       -0.5148940331       -1.0783263797
 O         -4.1687752128       -1.1409795945       -2.3805631705
 O         -5.3833676014       -0.1481947037       -0.5046936268
 C         -3.2184787408       -1.5469247229        0.0731556905
 C         -3.8259435322       -1.9431245808        1.2474286704
 C         -3.1172987706       -2.7345649567        2.1370098274
 C         -1.8181134159       -3.1137473619        1.8385056115
 C         -1.2234323524       -2.7121715175        0.6521498911
 C         -1.9267912024       -1.9206420922       -0.2410263758
 H         -1.4869122905       -1.5940091283       -1.1706458568
 H         -0.2127294414       -3.0097933508        0.4213048810
 H         -1.2626188195       -3.7257601769        2.5313772063
 H         -3.5780363223       -3.0497618381        3.0592021657
 H         -4.8369352858       -1.6227655753        1.4400115151
 H         -2.6504987609        0.8223388001       -2.1437089781
 H         -4.0488010896        1.0515442004        1.1864209629
 H         -2.7040620494        1.7757076738        3.1420096983
 H         -0.3489706836        2.4339949856        2.8453631039
 C          1.0860403474        2.5427842119        0.5402771042
 H          1.5130655556        2.7284040460        1.5349063939
 C          1.1564334278        3.8309705047       -0.2571130837
 C          0.8345850849        5.1255896006        0.4244836007
 C          2.2476011283        4.8152847412        0.0328247339
 H          2.6876511402        5.3537640386       -0.7930848924
 H          2.9505884132        4.5663021284        0.8144615274
 H          0.5805212234        5.0897462921        1.4729203871
 H          0.3000009240        5.8803948557       -0.1314490380
 H          0.8527159511        3.7163837170       -1.2895330859
 O          2.7317850487        0.9175904588        2.1131927097
