  62
        -98.93572590
 C         -0.9815720470       -1.4500242111       -0.1758828592
 C         -1.8508050276       -1.0095766907        0.8559196001
 C         -2.8298969951        0.0232212657        0.4951512128
 C         -2.8303558207        0.5268456511       -0.7514490816
 C         -3.7256940908        1.6130894650       -1.2865382461
 C         -5.2282175329        1.2786237865       -1.3602324536
 C         -6.0362828405        1.7248772831       -0.1352834503
 H         -6.9946648459        2.1238500947       -0.4738365335
 H         -5.5112227385        2.5469667840        0.3525619173
 C         -6.3466557437        0.6338172308        0.8941296670
 H         -7.1662296296        0.0149370121        0.5215642334
 H         -6.6950319755        1.1241599323        1.8057823721
 C         -5.1900858268       -0.3022910372        1.2464349101
 H         -5.0353586667       -1.0164807655        0.4340947735
 H         -5.4813311461       -0.8888884844        2.1199850415
 C         -3.8506773580        0.4067578453        1.5266548401
 H         -3.4546378814        0.0852362322        2.4917541098
 H         -3.9902899867        1.4864555689        1.5523153275
 H         -5.3556603114        0.2101834609       -1.5324456162
 H         -5.6248038723        1.7954760409       -2.2356361908
 H         -3.3597367580        1.8219621498       -2.2938279129
 H         -3.5880113107        2.5150502990       -0.6860105257
 O         -1.9479903756        0.1143009984       -1.6989691427
 C         -1.0203285953       -0.8879857137       -1.4520729002
 O         -0.3109083004       -1.1581190389       -2.4404239369
 O         -1.8133985751       -1.4685925321        2.0275989823
 C         -0.0161459282       -2.5681093054        0.1819923310
 C          1.3348895801       -2.0137645615        0.5502782232
 C          1.9275140736       -2.3032477997        1.7732154969
 C          3.1547169480       -1.7569924695        2.1108534941
 C          3.8132247265       -0.9080019249        1.2387351560
 C          3.2260821532       -0.6127763302        0.0158135991
 C          2.0010505859       -1.1644974969       -0.3232460242
 H          1.5511932825       -0.9286223842       -1.2764272919
 N          3.8655777146        0.2940363826       -0.8654224351
 S          3.8129902157        1.8811328955       -0.3262145822
 O          4.1484819553        2.7028362376       -1.4661165305
 O          4.6726092473        2.0023905233        0.8232886112
 C          2.1146253854        2.1423585498        0.1547603133
 C          1.7247318749        1.8285849425        1.4414894724
 C          0.3914604042        1.9690024482        1.7892543400
 C         -0.5225013341        2.4224612152        0.8513540422
 C         -0.1166827080        2.7290655367       -0.4380499305
 C          1.2135382704        2.5799506264       -0.7945753827
 H          1.5679805934        2.8084853518       -1.7872558672
 H         -0.8316383400        3.0741115631       -1.1678254731
 H         -1.5581568383        2.5321773057        1.1303827917
 H          0.0657583111        1.7176380482        2.7857609427
 H          2.4662957760        1.4890380301        2.1458849402
 H          3.4722038988        0.2598411342       -1.7968336554
 H          4.7564768138       -0.4524071264        1.4927606947
 H          3.6011866164       -1.9906787348        3.0652752037
 H          1.4119694556       -2.9482403515        2.4694335974
 H         -0.4448464433       -3.0209938599        1.0895381838
 C          0.0499441986       -3.6578805174       -0.8806745294
 C          1.2703981723       -3.9614983708       -1.6923748575
 C          0.8350103984       -4.9091465967       -0.6178776910
 H          0.4092908380       -5.8595335199       -0.9017891913
 H          1.4260476591       -4.9407899991        0.2851120750
 H          1.1251784123       -4.2408939299       -2.7249267678
 H          2.1609095657       -3.3765423648       -1.5247197722
 H         -0.9005972864       -3.7813612556       -1.3901759788
