  62
        -98.93659278
 C         -1.7549050687       -1.1449183740        0.2723456201
 C         -2.1558435824       -0.0719706003       -0.5584098567
 C         -3.6025634189        0.0430050922       -0.8074430810
 C         -4.4376564074       -0.8608671196       -0.2632577274
 C         -5.9368727016       -0.8315922152       -0.3577818335
 C         -6.5048081756        0.2195539686        0.6172751596
 C         -7.2002302716        1.3993514416       -0.0621876452
 H         -8.1806731951        1.0764738721       -0.4184415492
 H         -7.3621585726        2.1658037023        0.6987086278
 C         -6.4543762445        2.0225455429       -1.2461286661
 H         -6.6052414187        1.4123025481       -2.1378439498
 H         -6.9252718947        2.9873807425       -1.4463601390
 C         -4.9483412768        2.2415531392       -1.0512104372
 H         -4.7039136765        2.3227502397        0.0082235519
 H         -4.6809412947        3.1949510693       -1.5116593222
 C         -4.0547058917        1.1667277028       -1.6983806309
 H         -4.5563668852        0.7566121028       -2.5794485739
 H         -3.1291908368        1.6411944559       -2.0388503305
 H         -7.2194000047       -0.2566532973        1.2902526420
 H         -5.6856191262        0.5878708746        1.2383973323
 H         -6.2368047984       -0.6084613429       -1.3791610284
 H         -6.2981707667       -1.8263585665       -0.0964779570
 O         -4.0103176165       -1.8851455991        0.5202399013
 C         -2.6664194808       -2.0519432009        0.8113339457
 O         -2.4152299773       -3.0243166104        1.5512154113
 H          2.0886692731       -0.0694745591        0.0010348777
 C          1.5285654291        0.4167826112        0.7817483129
 C          0.3044284563       -0.0927699483        1.1866362999
 C         -0.3890266895        0.5635709594        2.2004458858
 C          0.1144220392        1.7172599463        2.7681034418
 C          1.3233654453        2.2384018279        2.3421019320
 C          2.0340507914        1.5812360908        1.3450813129
 N          3.2862549176        2.0590266414        0.9429932179
 S          3.9365834554        1.7647465727       -0.5640724160
 O          5.0354409334        2.7038976454       -0.6577384766
 O          2.9564168786        1.8383511635       -1.6211415635
 C          4.6026799406        0.1166031996       -0.4508215235
 C          5.1524282946       -0.3129556560        0.7407512259
 C          5.7076792595       -1.5811093861        0.8026025245
 C          5.7140165751       -2.3910611560       -0.3226121231
 C          5.1641397300       -1.9429007918       -1.5135344595
 C          4.6017147055       -0.6775337406       -1.5803397927
 H          4.1509842996       -0.2941580945       -2.4823394018
 H          5.1701686183       -2.5730992126       -2.3888714091
 H          6.1477246133       -3.3772269058       -0.2722685359
 H          6.1344381570       -1.9335922960        1.7277338324
 H          5.1317282080        0.3405644072        1.5965717088
 H          3.5500867120        2.9608620397        1.3096907511
 H          1.7135424986        3.1458741943        2.7769310375
 H         -0.4408048231        2.2206973205        3.5454117655
 H         -1.3379659191        0.1606425957        2.5284494804
 C         -0.2849155046       -1.3480026117        0.5916605330
 H         -0.2484523791       -2.1384477217        1.3561187925
 C          0.4514449549       -1.8326959606       -0.6403605407
 C          1.6347267257       -2.7417419935       -0.5024919364
 C          0.3367810366       -3.2753731598       -1.0277932723
 H          0.2644432633       -3.5231767010       -2.0761187865
 H         -0.2553980874       -3.9121142972       -0.3865587882
 H          2.4582166653       -2.6234894639       -1.1903403340
 H          1.9323878082       -3.0258878404        0.4953868313
 H          0.4579395797       -1.0973556280       -1.4379797830
 O         -1.3491125862        0.7508215202       -1.0665332945
