  62
        -98.93831192
 C          2.0613826466        1.0566446688        0.1978976689
 C          2.4305319261       -0.1346449222       -0.4682674953
 C          3.7136434439       -0.7447699129       -0.0671597734
 C          4.4586274188       -0.1638915624        0.8908756377
 C          5.7691744021       -0.5762599094        1.5284670402
 C          6.6380513479       -1.6630024881        0.9008600968
 C          7.2649683888       -1.2846377435       -0.4407380094
 H          8.0223616219       -0.5164277379       -0.2654636896
 H          7.7716443822       -2.1652375275       -0.8416444057
 C          6.2977724142       -0.7457360154       -1.4917056863
 H          5.8559957343        0.1883348812       -1.1388583816
 H          6.8768285234       -0.5092317290       -2.3885463845
 C          5.1782863317       -1.7008053836       -1.9006407629
 H          4.6656416572       -1.2584442357       -2.7591005778
 H          5.6058372629       -2.6527600958       -2.2216190254
 C          4.1174804757       -1.9790304799       -0.8217466621
 H          3.2149619996       -2.3424008886       -1.3219186847
 H          4.4442004144       -2.7576381153       -0.1366103204
 H          6.0779641565       -2.5893599140        0.8129944953
 H          7.4537625038       -1.8531430947        1.6038048550
 H          6.3570217393        0.3426999741        1.6199622049
 H          5.5168850493       -0.8822000683        2.5499395387
 O          4.0552989061        0.9820243473        1.5139227391
 C          2.8696069148        1.6127459115        1.1924499889
 O          2.6501597476        2.6510497267        1.8472333513
 H         -0.5712427715       -0.3896806522       -1.0365138486
 C         -0.9570860226       -0.0555655293       -0.0861686208
 C         -0.3860423900        1.0456635873        0.5348285118
 C         -0.8744981679        1.4377718594        1.7770229051
 C         -1.8994114027        0.7363061762        2.3862404133
 C         -2.4584377123       -0.3693972765        1.7705257871
 C         -1.9777293796       -0.7678719895        0.5296868515
 N         -2.5311910451       -1.8923988237       -0.1006026877
 S         -4.1863931333       -2.1068513329       -0.0628728840
 O         -4.5749821797       -2.6836030147        1.2008712395
 O         -4.4945791579       -2.8953156005       -1.2353499301
 C         -4.8812726169       -0.4697523617       -0.2129852570
 C         -4.5595691705        0.2766205791       -1.3293821189
 C         -5.0761376808        1.5561460022       -1.4511483037
 C         -5.9007942126        2.0656253096       -0.4596079024
 C         -6.2177281570        1.3023472814        0.6529787336
 C         -5.7030757153        0.0219946542        0.7804668925
 H         -5.9222697104       -0.6049622532        1.6294823209
 H         -6.8605232868        1.7000022502        1.4217437877
 H         -6.2986176141        3.0634557769       -0.5564168779
 H         -4.8319290469        2.1516864196       -2.3160394396
 H         -3.9190873712       -0.1490789441       -2.0850380193
 H         -2.1366019042       -2.0954951449       -1.0065186434
 H         -3.2434289544       -0.9396967550        2.2401560385
 H         -2.2647744267        1.0501733942        3.3521347401
 H         -0.4276623725        2.2894936413        2.2698564263
 C          0.7635772754        1.7958606268       -0.0943467018
 H          0.8535042015        2.7609301497        0.4212482300
 C          0.5597580403        2.0585601752       -1.5729613541
 C         -0.4522996599        3.0786987496       -1.9966181469
 C          1.0106564211        3.3650694476       -2.1504108130
 H          1.4359539535        3.3698650866       -3.1429835395
 H          1.4659371232        4.0786153094       -1.4788909953
 H         -1.0327912409        2.8893568143       -2.8863341490
 H         -0.9912239732        3.5985681972       -1.2191629659
 H          0.6823955587        1.1798609410       -2.1919347671
 O          1.7370243364       -0.6876858997       -1.3629148976
