  62
        -98.94351568
 C         -1.8532961276       -0.2799386374       -0.2595903568
 C         -2.9753788297       -0.4641370775       -1.1016007514
 C         -4.2740119088       -0.5526742852       -0.4248441679
 C         -4.3326692642       -0.4814134449        0.9177385247
 C         -5.5788797895       -0.5861118060        1.7547217629
 C         -6.3519315869        0.7324267057        1.8948398735
 C         -7.0994714920        1.1854913734        0.6400793455
 H         -7.7675642767        1.9952349611        0.9402000758
 H         -7.7226313530        0.3686304554        0.2746344930
 C         -6.1915035324        1.6887866410       -0.4907160059
 H         -5.2003018531        1.9126922110       -0.0899408692
 H         -6.5927436171        2.6221206234       -0.8920662917
 C         -6.0425065100        0.7190319754       -1.6629940665
 H         -5.3505150260        1.1585994104       -2.3859062686
 H         -7.0079051114        0.5896744614       -2.1573848406
 C         -5.5046475119       -0.6640312502       -1.2734273191
 H         -5.2302020112       -1.1954259538       -2.1881928417
 H         -6.2749928844       -1.2350647433       -0.7554629738
 H         -5.6554847196        1.5141966698        2.2062751924
 H         -7.0812319368        0.5980559279        2.6970436508
 H         -5.2584457542       -0.9044280706        2.7490612609
 H         -6.2355021647       -1.3515451673        1.3399889607
 O         -3.2271158366       -0.3227179857        1.6931811039
 C         -1.9649725676       -0.2021444321        1.1288339948
 O         -1.0467981097       -0.0388479048        1.9536087147
 O         -2.8941091157       -0.5597278136       -2.3562482818
 C         -0.4766426230       -0.1638902943       -0.8851250773
 C          0.4490865859       -1.2342943272       -0.3618563720
 C         -0.0322928112       -2.5300828318       -0.1920448444
 C          0.7890028004       -3.5338147182        0.2817030198
 C          2.1162536103       -3.2739706692        0.5748075624
 C          2.6130928390       -1.9904329801        0.3911656066
 C          1.7800017255       -0.9792103046       -0.0690743037
 H          2.1863318286        0.0094735802       -0.2028950398
 N          3.9523031777       -1.6917279679        0.6821449140
 S          4.8253642059       -0.6994795709       -0.3433337721
 O          4.3939562061       -0.8370308923       -1.7146474831
 O          6.2100040774       -1.0304892016       -0.0790989918
 C          4.5170403129        0.9549621078        0.2368363717
 C          4.4531103266        1.9816070637       -0.6843064637
 C          4.2680581285        3.2790586302       -0.2323168081
 C          4.1504468375        3.5255259198        1.1267064123
 C          4.2176668002        2.4831225093        2.0387902564
 C          4.4077527697        1.1845714979        1.5939594557
 H          4.4615675446        0.3523918775        2.2757617973
 H          4.1219565308        2.6780426567        3.0948545336
 H          4.0039171870        4.5352199399        1.4767579607
 H          4.2152441224        4.0904812752       -0.9409714304
 H          4.5371730214        1.7435317914       -1.7327421907
 H          4.5037254971       -2.4756007920        0.9997158675
 H          2.7610348716       -4.0578245471        0.9424851126
 H          0.3960124178       -4.5303453562        0.4172649804
 H         -1.0662994954       -2.7392913101       -0.4305794007
 H         -0.6275093379       -0.3454948167       -1.9606062904
 C          0.0606553473        1.2406316130       -0.7013233896
 C          0.9671527292        1.8506361100       -1.7268688303
 C         -0.4469817824        2.3288088723       -1.5976825784
 H         -0.6251949383        3.3057134499       -1.1743321535
 H         -1.1559395850        2.0480601601       -2.3630228627
 H          1.7596824151        2.5003615405       -1.3874670077
 H          1.2279575647        1.2501058062       -2.5856470466
 H          0.2282583929        1.4862532534        0.3416049376
