  62
        -98.94940170
 C          1.3603099818        1.5910105182        0.2660407791
 C          1.6320985507        0.6080732482        1.2474062093
 C          2.7914344595       -0.2555713734        0.9964130694
 C          3.5129053796       -0.0755639146       -0.1246227908
 C          4.7051468484       -0.8972631762       -0.5191932108
 C          4.3074854368       -2.0822284960       -1.4090670104
 C          3.1516783658       -2.9187970144       -0.8590399400
 H          2.2273993465       -2.3358932732       -0.8853970400
 H          3.0075102846       -3.7600205144       -1.5414603197
 C          3.3676707754       -3.4514047442        0.5642067101
 H          4.4294740055       -3.4298051155        0.8146755199
 H          3.0458452240       -4.4945597638        0.5951311105
 C          2.5707752765       -2.7095927229        1.6391026301
 H          1.5324163766       -2.6156789317        1.3081444502
 H          2.5742972059       -3.3175121227        2.5482232102
 C          3.0961737184       -1.3173311035        2.0144740796
 H          2.5917509989       -1.0061600626        2.9341203296
 H          4.1690756283       -1.3697659448        2.2122136894
 H          5.1844471559       -2.7189410171       -1.5435504304
 H          4.0129031971       -1.6978003159       -2.3884175705
 H          5.3929236492       -0.2560609873       -1.0737853411
 H          5.2035938281       -1.2564634666        0.3792164492
 O          3.2165872906        0.8705979055       -1.0517622410
 C          2.1127108217        1.6989928970       -0.9030368310
 O          1.9231002625        2.4750369169       -1.8591267312
 H         -0.4067668004        0.0322410403       -0.4620214201
 C         -1.0715171295        0.7607619910       -0.8971575302
 C         -0.9187778477        2.1020550609       -0.5770658406
 C         -1.7685921167        3.0236616918       -1.1760579907
 C         -2.7311582974        2.6011511528       -2.0774210804
 C         -2.8839295091        1.2610306429       -2.3852695800
 C         -2.0403383402        0.3310794720       -1.7880353699
 N         -2.1410288620       -1.0388676079       -2.0686642295
 S         -1.8160257532       -2.1649030080       -0.8749424693
 O         -0.4025114833       -2.2248958397       -0.6038387095
 O         -2.4140701049       -3.3855133774       -1.3735849788
 C         -2.7297162923       -1.5931895365        0.5463662907
 C         -4.1063465424       -1.7071746047        0.4875972310
 C         -4.8681212816       -1.2361131235        1.5430858710
 C         -4.2433344307       -0.6547601640        2.6366703808
 C         -2.8625482605       -0.5519832257        2.6828346705
 C         -2.0932785013       -1.0243662870        1.6298237305
 H         -1.0173897712       -0.9447151983        1.6517514703
 H         -2.3669549198       -0.1017672661        3.5282653903
 H         -4.8344614100       -0.2821553230        3.4582977908
 H         -5.9423589317       -1.3203144621        1.5103480513
 H         -4.5516399332       -2.1776367444       -0.3740546488
 H         -2.9278868525       -1.3064359971       -2.6404668493
 H         -3.6371052697        0.9368645937       -3.0867747398
 H         -3.3788154765        3.3279614235       -2.5436653905
 H         -1.6718818853        4.0717156718       -0.9443892510
 C          0.1369851329        2.4719272798        0.4381986491
 H         -0.2622713672        2.2193723306        1.4331502493
 C          0.5038814048        3.9404499394        0.4217753787
 C         -0.2799005838        4.9244651606        1.2367394685
 C          1.1095325458        4.5473398189        1.6510466784
 H          1.9018118467        5.2708914479        1.5317159180
 H          1.2316712551        3.9060178390        2.5118644285
 H         -0.4415098226        5.9132549407        0.8346279783
 H         -1.1019559642        4.5456512418        1.8250428288
 H          0.8930855050        4.2614695986       -0.5374206115
 O          0.9321303107        0.4597215293        2.2865383595
