  62
        -98.93211210
 C         -2.0143469843       -0.2752638174       -1.0322308119
 C         -2.8582536022        0.8266634681       -0.7482919380
 C         -4.2634907858        0.5015505410       -0.4424413844
 C         -4.6631940817       -0.7818896254       -0.4440496142
 C         -6.0325049799       -1.2722518669       -0.0676564630
 C         -6.1887345063       -1.2715304639        1.4665974056
 C         -7.2265620586       -0.2811009214        1.9958056127
 H         -8.2254614736       -0.6833351878        1.8141057478
 H         -7.0909200433       -0.2132129587        3.0773382242
 C         -7.1732359714        1.1277561200        1.3970673004
 H         -7.6585834882        1.1296854775        0.4199604069
 H         -7.7742592055        1.7705547703        2.0438676142
 C         -5.7755236639        1.7431251345        1.2522818397
 H         -5.0811821857        1.2903578782        1.9603827866
 H         -5.8434595697        2.8027928100        1.5065031829
 C         -5.1830569421        1.6593394526       -0.1669694464
 H         -5.9925281584        1.6653589355       -0.9019961167
 H         -4.5718378134        2.5494200570       -0.3430097028
 H         -6.4675606919       -2.2710437246        1.8038697281
 H         -5.2147419351       -1.0522720390        1.9092562839
 H         -6.7893551814       -0.6428060238       -0.5304858564
 H         -6.1330413316       -2.2848090643       -0.4591244472
 O         -3.8229082537       -1.8138431428       -0.7201737743
 C         -2.4906772162       -1.5887440749       -1.0176004419
 O         -1.8385379043       -2.6256539629       -1.2565497436
 O         -2.4791547922        2.0255974067       -0.7439463790
 C         -0.5415355064       -0.1249205536       -1.3759253536
 C          0.3044724927       -0.1031877612       -0.1275914172
 C          0.0038405320        0.7471890310        0.9331806433
 C          0.7835667116        0.7481573576        2.0745001832
 C          1.8885055698       -0.0803181833        2.1727159173
 C          2.2024207847       -0.9261834280        1.1167342847
 C          1.4057949281       -0.9397040794       -0.0210168344
 H          1.6584853002       -1.6123918751       -0.8266081386
 N          3.3287128347       -1.7725530314        1.1757151491
 S          4.5341012668       -1.5309275622        0.0379272597
 O          4.0085781685       -1.7544189407       -1.2833596690
 O          5.6271014177       -2.3790970731        0.4553205831
 C          4.9845492322        0.1834437601        0.2424176237
 C          4.2271298761        1.1512392833       -0.3865105229
 C          4.5277105283        2.4859804630       -0.1660794031
 C          5.5749436236        2.8278085176        0.6758574491
 C          6.3280750039        1.8439724893        1.2989546199
 C          6.0285244992        0.5078375596        1.0867006896
 H          6.5898869246       -0.2895604188        1.5464168761
 H          7.1440344002        2.1135237830        1.9500253972
 H          5.8054847600        3.8677334698        0.8451985802
 H          3.9404707617        3.2488525595       -0.6518408778
 H          3.4241383517        0.8488950977       -1.0379930745
 H          3.7446344185       -1.8272665838        2.0953884453
 H          2.5005996908       -0.0766457611        3.0621562231
 H          0.5353943050        1.4078877181        2.8918839561
 H         -0.8421814414        1.4112131508        0.8461842969
 H         -0.2815501112       -1.0410632083       -1.9297036631
 C         -0.2624416132        1.0598218993       -2.2945244482
 C          0.6511840334        2.1853313219       -1.9206562839
 C          1.0832274821        1.1831249535       -2.9460475188
 H          1.1311158164        1.4854179723       -3.9814190446
 H          1.8339815187        0.4551876938       -2.6713419470
 H          0.3803286563        3.1767881572       -2.2498625313
 H          1.1183683672        2.1610613179       -0.9484999635
 H         -1.1210451361        1.3184869010       -2.9039032204
