  62
        -98.94393066
 C         -1.7878055422       -0.6424342584        0.5609681010
 C         -3.0639657133       -0.6177409406        1.1724322525
 C         -4.2098547487       -0.5368278319        0.2599287746
 C         -4.0037112923       -0.5153885853       -1.0696873072
 C         -5.0705849495       -0.4611840729       -2.1294152527
 C         -5.5766155413        0.9551790843       -2.4351950260
 C         -6.4614009151        1.5774779113       -1.3542286021
 H         -6.9184713398        2.4690087411       -1.7883233126
 H         -7.2680330905        0.8874763003       -1.1044631400
 C         -5.7116351074        1.9801531143       -0.0766289623
 H         -4.6398157883        2.0268787550       -0.2836149796
 H         -6.0216056538        2.9826569392        0.2271869092
 C         -5.9464626805        1.0526864335        1.1158483010
 H         -5.3406809284        1.4102259709        1.9526441730
 H         -6.9955508510        1.1009557805        1.4160526850
 C         -5.5790131720       -0.4144437611        0.8573400771
 H         -6.3214343644       -0.8794459578        0.2090550321
 H         -5.5721238829       -0.9397201832        1.8156377823
 H         -4.7156679891        1.6023966722       -2.6185537424
 H         -6.1545450158        0.9020444261       -3.3607668814
 H         -4.6260612395       -0.8709233976       -3.0389680050
 H         -5.9099249108       -1.0931251761       -1.8377424056
 O         -2.7616338110       -0.5627759539       -1.6192196713
 C         -1.6240021345       -0.6072118132       -0.8242115327
 O         -0.5555777663       -0.6164122674       -1.4613199195
 O         -3.2355311955       -0.6613226914        2.4207283075
 C         -0.5582546096       -0.7174881750        1.4442915996
 C          0.3590306205        0.4621498282        1.2310141133
 C         -0.1629904180        1.7099397889        0.9040641606
 C          0.6661232044        2.7941392766        0.6850306307
 C          2.0388771572        2.6650064708        0.8037282490
 C          2.5693595956        1.4339970824        1.1588958610
 C          1.7349262199        0.3435740133        1.3710052042
 H          2.1683383810       -0.6077449615        1.6398917498
 N          3.9736038783        1.3066000379        1.2774008768
 S          4.8095786082        1.2375026156       -0.1755226221
 O          6.2075334379        1.1324149227        0.1753380380
 O          4.4298104057        2.3691436173       -0.9798764167
 C          4.2561346310       -0.2873083139       -0.9158580705
 C          5.0420442639       -1.4172868337       -0.7957646492
 C          4.5608308561       -2.6218651949       -1.2817020325
 C          3.2992474915       -2.6802196956       -1.8562201241
 C          2.5202727121       -1.5385188627       -1.9648571395
 C          3.0030966474       -0.3276883185       -1.4935074410
 H          2.4123247843        0.5710182364       -1.5670012508
 H          1.5267050687       -1.5724810053       -2.3833664633
 H          2.9178759579       -3.6213743869       -2.2209158905
 H          5.1637046485       -3.5124218955       -1.2031051415
 H          6.0116652414       -1.3271929767       -0.3328816435
 H          4.2535542758        0.5185892694        1.8462805563
 H          2.7031103065        3.4919419675        0.6137704003
 H          0.2396616166        3.7495522593        0.4182186701
 H         -1.2347190417        1.8205462216        0.8098792807
 H         -0.9401876117       -0.6709499842        2.4759505947
 C          0.1457852914       -2.0461942730        1.2447640617
 C          0.8075743564       -2.7439517331        2.3947449577
 C         -0.4686413980       -3.2835552189        1.8245244894
 H         -0.4350451741       -4.1957630354        1.2483954519
 H         -1.3766439456       -3.1625276961        2.3973304572
 H          1.7200991955       -3.2909424503        2.2096792922
 H          0.7636446803       -2.2695419843        3.3637893988
 H          0.6050326371       -2.1267963451        0.2656990376
