  62
        -98.94674505
 C         -1.5925928483       -1.4781980262       -0.0174984983
 C         -2.4418358765       -0.8882231484        0.9477642515
 C         -3.1306154636        0.3370146819        0.5288294721
 C         -2.9294136661        0.8264349945       -0.7087732215
 C         -3.6158354952        2.0264252275       -1.3038853331
 C         -2.9658180003        3.3706483148       -0.9516284500
 C         -3.1514922710        3.8271038558        0.4953110689
 H         -2.8297969178        4.8689648968        0.5483811283
 H         -4.2105752168        3.8018215921        0.7535044342
 C         -2.3504310888        3.0092958588        1.5180407695
 H         -1.5726443041        2.4414873426        1.0009495968
 H         -1.8450510910        3.6848707693        2.2118536970
 C         -3.1957243438        2.0489010564        2.3552564320
 H         -2.5300117281        1.4925917519        3.0207102495
 H         -3.8897401017        2.6187811007        2.9771570168
 C         -3.9997581189        1.0341164211        1.5314516004
 H         -4.8343411705        1.5296015448        1.0358533120
 H         -4.3967365685        0.2770200305        2.2123187593
 H         -1.9001035970        3.3062820948       -1.1737344471
 H         -3.4041517439        4.1260454109       -1.6076290988
 H         -4.6621249791        2.0343474534       -0.9962034030
 H         -3.5749369896        1.8990661425       -2.3876539470
 O         -2.0812338954        0.2452313674       -1.5973076107
 C         -1.3809152624       -0.9085214684       -1.2735973326
 O         -0.6252938678       -1.3197570794       -2.1718828041
 O         -2.6189630276       -1.3657716755        2.1018090326
 C         -0.8581611807       -2.7592072430        0.3345172054
 C          0.6314075242       -2.5289471551        0.2810001952
 C          1.5129379079       -3.3512321913       -0.4069138379
 C          2.8682617119       -3.0659775425       -0.4276201480
 C          3.3740486297       -1.9661463670        0.2398910333
 C          2.5002507970       -1.1389969705        0.9358494939
 C          1.1447940948       -1.4262829876        0.9547201666
 H          0.4659588417       -0.7806356104        1.4987303273
 N          3.0045860834       -0.0126858329        1.6215571830
 S          3.7330515427        1.1885329635        0.7114261788
 O          4.8719137578        0.6296643822        0.0297974512
 O          4.0039777594        2.2620141559        1.6398805011
 C          2.5068755078        1.7129603392       -0.4732555503
 C          2.2201117351        0.8988083678       -1.5512026414
 C          1.2432582273        1.2970050504       -2.4497708907
 C          0.5813233937        2.5001381256       -2.2610997885
 C          0.8830380686        3.3086277297       -1.1751579039
 C          1.8479189426        2.9083128712       -0.2653807323
 H          2.1117609906        3.5037406473        0.5939179456
 H          0.3717072341        4.2478019645       -1.0326658982
 H         -0.1748949319        2.8040620420       -2.9683770574
 H          0.9893117355        0.6549074326       -3.2775948052
 H          2.7553968065       -0.0279599921       -1.6782189261
 H          2.3259523451        0.4107595506        2.2391842563
 H          4.4235859206       -1.7220629119        0.2174144852
 H          3.5409980798       -3.7109864498       -0.9723161122
 H          1.1402427276       -4.2131656579       -0.9350012653
 H         -1.1320008308       -2.9752127659        1.3781951346
 C         -1.3324965305       -3.9012973158       -0.5385570884
 C         -1.2682608653       -5.3117302535       -0.0358176017
 C         -2.5920261227       -4.6217765397       -0.1653091232
 H         -3.2623387941       -4.9311824575       -0.9530782197
 H         -3.0963682180       -4.3055144657        0.7362384746
 H         -1.0318894102       -6.0991248217       -0.7354939743
 H         -0.8752720241       -5.4715686542        0.9568610065
 H         -1.1531911105       -3.7230252889       -1.5927434809
