  62
        -98.94341581
 C         -2.2890679191       -0.6316145167        0.0665810631
 C         -3.1649949022       -0.1687688910        1.0855341628
 C         -4.0694863207        0.9295595202        0.7263171404
 C         -4.0140839770        1.4427909704       -0.5157781524
 C         -4.9089531975        2.5279991585       -1.0384040736
 C         -6.1652240683        1.9422601549       -1.6982337814
 C         -6.8790033996        0.8936063016       -0.8451179231
 H         -6.2330060973        0.0187223500       -0.7415244799
 H         -7.7655393399        0.5740810243       -1.3972141359
 C         -7.2938404799        1.3845002303        0.5489892495
 H         -8.3174029179        1.0580441603        0.7445939165
 H         -7.2915998747        2.4747903832        0.5737338275
 C         -6.4296797283        0.8502016002        1.6927751574
 H         -6.3521710804       -0.2372606736        1.6161116288
 H         -6.9355590694        1.0762529349        2.6351808207
 C         -5.0121451902        1.4290871934        1.7847557410
 H         -4.5846727878        1.1119065979        2.7403102801
 H         -5.0588912597        2.5198872857        1.7744253371
 H         -5.8747951166        1.4753708518       -2.6422942190
 H         -6.8514987880        2.7611589897       -1.9214126499
 H         -5.1895859358        3.1856347010       -0.2179707981
 H         -4.3542107128        3.1040022912       -1.7809722638
 O         -3.1542888646        0.9885912297       -1.4601463359
 C         -2.2786964691       -0.0570010151       -1.2042081171
 O         -1.5685824920       -0.3523896949       -2.1878086294
 H          0.4034515147       -0.5733356004       -1.2178518321
 C          0.8111858031       -0.7113658776       -0.2272948599
 C          0.0282865462       -1.3037305444        0.7533645635
 C          0.5662528434       -1.4644619669        2.0249116083
 C          1.8534688043       -1.0398656732        2.3042362451
 C          2.6277981612       -0.4435541185        1.3253239105
 C          2.0993470324       -0.2772277180        0.0518042061
 N          2.8657166760        0.3500620701       -0.9457698901
 S          4.4269603768       -0.2015955287       -1.2189507901
 O          4.7249355305        0.1560568998       -2.5884955504
 O          4.5635599874       -1.5979952352       -0.8745994302
 C          5.4256613321        0.7947524735       -0.1320298376
 C          6.2467263442        0.1907407293        0.7998873275
 C          7.0203828251        0.9887756848        1.6284790082
 C          6.9603351723        2.3688213852        1.5101973794
 C          6.1324852454        2.9598892825        0.5671597105
 C          5.3574352167        2.1678233780       -0.2646423706
 H          4.7047607266        2.5863092334       -1.0127593211
 H          6.0885585854        4.0334532728        0.4777690909
 H          7.5624133058        2.9879303799        2.1563652885
 H          7.6650387288        0.5314873840        2.3617878149
 H          6.2575364595       -0.8860428447        0.8583712363
 H          2.3677345233        0.4646751279       -1.8170640283
 H          3.6298691175       -0.1081718356        1.5371929289
 H          2.2577747092       -1.1716330704        3.2962050002
 H         -0.0367357837       -1.9165293442        2.7988593477
 C         -1.3694987246       -1.7829887643        0.4391626687
 H         -1.7935890698       -2.1960624402        1.3642939141
 C         -1.3348989777       -2.8847697881       -0.6026700517
 C         -0.9125830406       -4.2617107455       -0.1903219376
 C         -2.3446481135       -3.9893414296       -0.5385851186
 H         -2.7369860982       -4.3822559443       -1.4645628026
 H         -3.0672675605       -3.9598978005        0.2639604339
 H         -0.6649463268       -4.4183584744        0.8485782150
 H         -0.3159643485       -4.8436584525       -0.8760542911
 H         -1.0383254905       -2.5411500480       -1.5852784614
 O         -3.1907062971       -0.6608342394        2.2448026837
