  62
        -98.93724659
 C         -1.6986296552       -1.4665433949       -0.0615691927
 C         -2.7847318472       -0.8064234279        0.5576235062
 C         -3.3020823189        0.3808766874       -0.1320065375
 C         -2.7212005952        0.7787400265       -1.2786024045
 C         -3.1432028453        1.9724358073       -2.0854031478
 C         -2.3564191634        3.2292262441       -1.6920439420
 C         -2.3125242317        3.4856446047       -0.1857863651
 H         -1.7136066718        2.7030488189        0.2867459863
 H         -1.7731915129        4.4237663853       -0.0324604063
 C         -3.6888612556        3.5716795593        0.4886990369
 H         -3.6838264104        4.4182860477        1.1787430787
 H         -4.4569119247        3.7683461946       -0.2606312367
 C         -4.0799463975        2.3376340429        1.3041197029
 H         -4.9379156352        2.6005710391        1.9292234974
 H         -3.2565735606        2.0701663698        1.9722403812
 C         -4.4674287458        1.0941808007        0.4935583980
 H         -4.9242977243        0.3767192627        1.1818352490
 H         -5.2077944448        1.3641989798       -0.2624759907
 H         -2.8016930224        4.0879806906       -2.1989699537
 H         -1.3269328714        3.1191707497       -2.0408155105
 H         -4.2092806699        2.1397667911       -1.9420393061
 H         -2.9569845286        1.7549738736       -3.1388165869
 O         -1.6613570167        0.1389861169       -1.8284471956
 C         -1.0961435170       -0.9704256910       -1.2188125079
 O         -0.0930773048       -1.4149710521       -1.8056666903
 O         -3.3014808301       -1.1987487423        1.6420796494
 C         -1.1100710837       -2.6989628976        0.6218709796
 C          0.3653612333       -2.4398175889        0.7993772691
 C          1.4421422969       -3.1329551831        0.2627035843
 C          2.7386162686       -2.6692841950        0.4261085831
 C          2.9971348506       -1.4865928170        1.0918489243
 C          1.9310398271       -0.7921753796        1.6462638382
 C          0.6474451399       -1.2879490876        1.5328028853
 H         -0.1730485487       -0.7245062839        1.9617237179
 N          2.1662039749        0.4935344692        2.2208214288
 S          1.7854537264        1.6804566714        1.0734144498
 O          2.0170776923        2.9501493845        1.7306514975
 O          0.4533383044        1.4949190417        0.5399304863
 C          3.0193627498        1.3938347182       -0.1707315850
 C          2.7321664612        0.5683475391       -1.2397304473
 C          3.7314181516        0.3115648638       -2.1664062466
 C          4.9872459884        0.8770803843       -2.0081650681
 C          5.2572103704        1.7044436459       -0.9279226362
 C          4.2656878932        1.9640066563        0.0038513910
 H          4.4240922671        2.5996088123        0.8595039695
 H          6.2347577907        2.1429543782       -0.8081577059
 H          5.7598274565        0.6703417019       -2.7319693646
 H          3.5170783782       -0.3353893286       -3.0018914484
 H          1.7477766055        0.1346160201       -1.3353967696
 H          1.5942912575        0.6636604672        3.0386527436
 H          3.9958673831       -1.0909846147        1.1783544170
 H          3.5553603475       -3.2253624694       -0.0075243371
 H          1.2928866382       -4.0234896016       -0.3199210198
 H         -1.5580866575       -2.6932243803        1.6303732088
 C         -1.6454636047       -3.9491057986       -0.0567315369
 C         -1.0975639893       -4.5550842882       -1.3108019718
 C         -1.0051656144       -5.3036503436       -0.0129667084
 H         -1.6537915761       -6.1568814585        0.1209310584
 H         -0.0493603901       -5.4088106802        0.4729385399
 H         -1.8068773107       -4.9022132801       -2.0485493049
 H         -0.2188762009       -4.1074295611       -1.7451649067
 H         -2.7310710801       -3.9433820414        0.0193570414
