  62
        -98.94475456
 C          1.8266101591        0.7245336497        0.4010516389
 C          2.4524164088        0.1492928395       -0.7315370911
 C          3.5152617488       -0.8228352105       -0.4435725612
 C          3.7975873591       -1.1510136303        0.8301434588
 C          4.8344118792       -2.1440681402        1.2806068887
 C          6.2533403192       -1.5663496402        1.3734506983
 C          6.9339302789       -1.2938848605        0.0314648980
 H          7.9882795890       -1.1023829105        0.2405110777
 H          6.8828849587       -2.1893756206       -0.5887076418
 C          6.3583366688       -0.0976080906       -0.7393414620
 H          7.1764386787        0.5225031593       -1.1124750424
 H          5.7695956789        0.5238462795       -0.0607234920
 C          5.4920203084       -0.4751062808       -1.9410794917
 H          5.1070292484        0.4446527891       -2.3886140518
 H          6.1043382382       -0.9828391510       -2.6895730618
 C          4.2948836885       -1.3720973807       -1.5996761913
 H          3.6279586283       -1.4004734809       -2.4650589011
 H          4.6328092985       -2.3859629307       -1.3857212212
 H          6.2174524594       -0.6440985701        1.9579361581
 H          6.8619688594       -2.2860872701        1.9257294183
 H          4.8334996690       -3.0044515803        0.6106206189
 H          4.5331288295       -2.4784916300        2.2758361289
 O          3.1315655494       -0.6167623700        1.8891153689
 C          2.1466671094        0.3407241299        1.7025684089
 O          1.6266157096        0.7555951502        2.7593134690
 O          2.1420721185        0.4273634192       -1.9181497911
 C          0.7376848290        1.7664268797        0.2177392690
 C         -0.4256597812        1.1680053196       -0.5363676206
 C         -1.0506614214        1.7938992594       -1.6062126106
 C         -2.1129292616        1.1840255293       -2.2524693702
 C         -2.5808008615       -0.0499598406       -1.8420884598
 C         -1.9760050113       -0.6749904005       -0.7581062898
 C         -0.9140678211       -0.0623066603       -0.1120981802
 H         -0.4428153209       -0.5522673502        0.7315847997
 N         -2.4589509412       -1.9193796404       -0.3170649295
 S         -4.1163646011       -2.0916822303       -0.1533670090
 O         -4.2948599009       -3.0952558101        0.8724188312
 O         -4.7005384815       -2.3940638405       -1.4361893488
 C         -4.6934496310       -0.5016335302        0.4139387908
 C         -5.5581584711        0.2391566797       -0.3654659991
 C         -5.9568028110        1.4895617198        0.0794235807
 C         -5.4828030107        1.9761638400        1.2875442605
 C         -4.6177375605        1.2176845301        2.0616957704
 C         -4.2172094607       -0.0335153099        1.6226627506
 H         -3.5482564105       -0.6489274398        2.2033355005
 H         -4.2495540003        1.5965713403        3.0017478503
 H         -5.7885867106        2.9518752301        1.6306072604
 H         -6.6309198411        2.0808223797       -0.5188644592
 H         -5.8997713714       -0.1763551805       -1.2993302390
 H         -1.9723907610       -2.2849583902        0.4878770605
 H         -3.3950504717       -0.5452246307       -2.3456276395
 H         -2.5805652418        1.6760004891       -3.0913711001
 H         -0.7002906115        2.7553850693       -1.9427881608
 H          0.3885656793        2.0209782899        1.2292834590
 C          1.3068847889        3.0114277295       -0.4296104614
 C          0.7028105890        4.3532457396       -0.1477382015
 C          2.0407893391        3.9983646397        0.4260146883
 H          2.9212086390        4.4763752496        0.0233034279
 H          2.1063468994        3.7855876199        1.4834955983
 H          0.6664527488        5.0802778495       -0.9449089516
 H         -0.1409938008        4.3909177198        0.5242464587
 H          1.6992242786        2.8219482493       -1.4219099314
