  62
        -98.94121250
 C          0.8508729395        1.6395684495       -0.7884992797
 C          2.1410625893        1.7064670597       -0.2067820094
 C          3.0492521696        0.5731029099       -0.4480707394
 C          2.6101348899       -0.4603619001       -1.1865242296
 C          3.3076817203       -1.7649177099       -1.4575214896
 C          2.9210942002       -2.8046245101       -0.3898098099
 C          3.8317636100       -2.8301535601        0.8355598403
 H          3.4027279300       -3.5455022103        1.5412828301
 H          4.8195581701       -3.1979686699        0.5483498105
 C          3.9865752496       -1.4811592102        1.5416893305
 H          4.3094650494       -1.6728652502        2.5671879906
 H          3.0106504195       -0.9929196604        1.5981531204
 C          5.0067203695       -0.5556983199        0.8620627709
 H          5.7169885493       -0.1923414598        1.6079458411
 H          5.5847793798       -1.1314479797        0.1393323009
 C          4.4121697094        0.6836831101        0.1800610909
 H          4.3116980091        1.4878135700        0.9160011710
 H          5.1153685995        1.0419209403       -0.5799230789
 H          2.9297309905       -3.7988246401       -0.8423934400
 H          1.8981626901       -2.5965785404       -0.0613784600
 H          2.9551756605       -2.1118974499       -2.4311151798
 H          4.3844130402       -1.6303591597       -1.5028116994
 O          1.3793746201       -0.4713446302       -1.7609476199
 C          0.4625088498        0.5477733496       -1.5648666799
 O         -0.6254105500        0.3486270994       -2.1407709802
 H         -1.3702880705        0.4097143290        0.0655498897
 C         -1.4206327708        1.0726829189        0.9133066597
 C         -0.8661791310        2.3412603790        0.8323610800
 C         -0.9735717714        3.1846342288        1.9314577601
 C         -1.5970637616        2.7524250186        3.0892654299
 C         -2.0864918813        1.4619836385        3.1881833796
 C         -1.9859255609        0.6136308886        2.0917080295
 N         -2.4310554907       -0.7158942315        2.1400013793
 S         -1.5278552703       -1.8898451712        1.3481909993
 O         -1.8443575602       -3.1173045114        2.0537980391
 O         -0.1246663704       -1.5483002909        1.3001168797
 C         -2.2240387599       -1.9998237011       -0.2844416508
 C         -1.4306948196       -2.4794778308       -1.3058415107
 C         -1.9789352593       -2.6270639308       -2.5691795409
 C         -3.3056862894       -2.2944570910       -2.7873242111
 C         -4.0905056397       -1.8156886413       -1.7498088712
 C         -3.5492053800       -1.6691953614       -0.4832126411
 H         -4.1285440402       -1.2921195116        0.3433461189
 H         -5.1212034797       -1.5514101215       -1.9247889014
 H         -3.7278036491       -2.4031208310       -3.7741160912
 H         -1.3633928791       -2.9882363806       -3.3773881108
 H         -0.3961548396       -2.7083372507       -1.1030134705
 H         -2.7447491208       -1.0340527416        3.0455622092
 H         -2.5315266015        1.1096112783        4.1062017895
 H         -1.6751393919        3.4170229884        3.9362838800
 H         -0.5439697816        4.1742164189        1.8847832603
 C         -0.1159317008        2.7512121993       -0.4148580198
 H          0.5105589390        3.6165476294       -0.1579490495
 C         -1.0746465907        3.1593828492       -1.5141916699
 C         -1.6582051309        4.5394636191       -1.4967799099
 C         -0.6388791907        4.1694640695       -2.5311879297
 H         -0.9587275104        4.0385421695       -3.5536794198
 H          0.3571689992        4.5767375596       -2.4347910895
 H         -2.6833994109        4.6668634490       -1.8079689801
 H         -1.3533573012        5.2043304191       -0.7030216197
 H         -1.7034665105        2.3483300592       -1.8566826602
 O          2.5176659690        2.6810275397        0.5019001508
