  62
        -98.94451930
 C         -1.9533058815       -1.1069485949       -0.1618238727
 C         -2.4272195081        0.0445798296       -0.8351833034
 C         -3.8804161056        0.2527740904       -0.7886896000
 C         -4.6669167184       -0.6423119258       -0.1639543406
 C         -6.1665658850       -0.5807580964       -0.0565961653
 C         -6.6749516961        0.2979924456        1.0945569693
 C         -6.5121678483        1.8040095631        0.8848479034
 H         -6.9396054301        2.0840815738       -0.0784184149
 H         -7.1007015578        2.3005546445        1.6589082511
 C         -5.0626713381        2.3023418260        0.9713920580
 H         -5.0217476313        3.1986352458        1.5943502054
 H         -4.4450036584        1.5453096477        1.4599322531
 C         -4.4327368941        2.6584886897       -0.3753144187
 H         -3.3957684882        2.9576249322       -0.2008912249
 H         -4.9597827616        3.5090615379       -0.8134288927
 C         -4.4277031099        1.5102857680       -1.3930027583
 H         -5.4331973867        1.3438546015       -1.7791080652
 H         -3.7747003912        1.7910028026       -2.2231544725
 H         -7.7384852326        0.0835980173        1.2223068509
 H         -6.1633727374        0.0008012541        2.0128678848
 H         -6.5869124262       -0.2278043905       -0.9986817177
 H         -6.5078837772       -1.6038637628        0.1151052723
 O         -4.1724557317       -1.7524229213        0.4461812468
 C         -2.8094649893       -1.9992272588        0.4832203153
 O         -2.4896405850       -3.0290223124        1.1110765126
 H          1.6592437730        0.0533726241       -1.1697272126
 C          1.3316105287        0.3917325014       -0.2018097492
 C          0.2785789881       -0.2294240098        0.4495274418
 C         -0.1183131335        0.2590101400        1.6927066214
 C          0.5074928170        1.3532665582        2.2554707873
 C          1.5528315332        1.9776329545        1.5967262209
 C          1.9624882171        1.4948004919        0.3605338654
 N          3.0071104426        2.1231176553       -0.3355749994
 S          4.1959709529        1.2250403970       -1.0900719307
 O          5.2591438822        2.1732182101       -1.3396622203
 O          3.6641368291        0.5462673567       -2.2432745427
 C          4.7112199553        0.0476563783        0.1460197976
 C          5.5526692668        0.4846892797        1.1508746700
 C          5.9142605606       -0.3985476848        2.1546172070
 C          5.4237798818       -1.6957336211        2.1412066773
 C          4.5813826068       -2.1189605729        1.1250632449
 C          4.2187351023       -1.2407624239        0.1157409571
 H          3.5698798385       -1.5346457227       -0.6925304746
 H          4.2032029910       -3.1288742425        1.1144728270
 H          5.7016127445       -2.3824221125        2.9252172034
 H          6.5735075873       -0.0743904697        2.9436800763
 H          5.9212896733        1.4971483838        1.1181518374
 H          3.4051467753        2.9198011355        0.1395302093
 H          2.0371584214        2.8397897785        2.0294503640
 H          0.1812516510        1.7249783401        3.2151830492
 H         -0.9378928093       -0.2276473998        2.2045603925
 C         -0.4648552476       -1.4077263554       -0.1302235740
 H         -0.3426558781       -2.2620533119        0.5514618288
 C          0.0108100470       -1.8146710771       -1.5087574623
 C          1.1588272308       -2.7650740981       -1.6601693054
 C         -0.2349427227       -3.2166211838       -1.9760545037
 H         -0.5076830424       -3.3754844435       -3.0085676006
 H         -0.7239978683       -3.8893818437       -1.2863417020
 H          1.6122248494       -3.1448616769       -0.7568164624
 H          1.8494371347       -2.6129012960       -2.4768301117
 H         -0.0972597838       -1.0228253702       -2.2415888947
 O         -1.6825431191        0.8559144475       -1.4441543672
