  62
        -98.93354601
 C          1.8338125842        1.2251035922       -0.0722003346
 C          1.2093840318        2.1473331632       -0.9443913680
 C          0.0789652533        2.9183986250       -0.3979742521
 C         -0.2781560050        2.7276117428        0.8836646867
 C         -1.4381880787        3.3380849080        1.6206162975
 C         -2.6773191607        2.4310710241        1.5243254105
 C         -3.5679413575        2.6790756933        0.3083121629
 H         -4.3346530874        1.9005614953        0.3037237800
 H         -4.0742515498        3.6404102573        0.4225080039
 C         -2.8544193806        2.6640744352       -1.0459761353
 H         -2.1679012634        1.8158037873       -1.1018677421
 H         -3.6101561164        2.5011856111       -1.8179234125
 C         -2.1106541156        3.9734940607       -1.3501768029
 H         -2.4255422073        4.7375725369       -0.6393397916
 H         -2.4024968576        4.3319114595       -2.3399005336
 C         -0.5801917346        3.8705352506       -1.3577031690
 H         -0.2476106985        3.5395191300       -2.3469795397
 H         -0.1552019163        4.8691144674       -1.2047686085
 H         -3.2849457195        2.5716678031        2.4205141242
 H         -2.3380940933        1.3921464213        1.5166523607
 H         -1.6505051877        4.3368546187        1.2515070152
 H         -1.1377384941        3.4069007140        2.6681034083
 O          0.3783777572        1.8623783142        1.7030863290
 C          1.4233730881        1.0684334588        1.2516743346
 O          1.8756722531        0.2921099141        2.1103753555
 O          1.5780429050        2.3122785101       -2.1401179024
 C          2.9216558352        0.3179145289       -0.6373261027
 C          2.4520456623       -1.1023423566       -0.4307768860
 C          2.9658390903       -2.0541954315        0.4399359010
 C          2.3600200453       -3.2943104201        0.5659795711
 C          1.2142397572       -3.6080661563       -0.1388606203
 C          0.6795623701       -2.6618443774       -1.0059551402
 C          1.3146296696       -1.4423194147       -1.1631034351
 H          0.8843669822       -0.7178062294       -1.8404882206
 N         -0.5078440112       -2.9161819609       -1.7241598813
 S         -1.7978802064       -1.8703744697       -1.5043228067
 O         -2.9101026591       -2.5102513861       -2.1721550388
 O         -1.4474760830       -0.5509497358       -1.9586825821
 C         -2.0768020605       -1.8635249681        0.2552880280
 C         -1.2492610305       -1.0896637524        1.0424832400
 C         -1.3982497731       -1.1265865283        2.4195601286
 C         -2.3779089906       -1.9299648596        2.9825844239
 C         -3.2075782631       -2.6979004610        2.1783948310
 C         -3.0530936302       -2.6734897181        0.8015257858
 H         -3.6739215133       -3.2542175139        0.1385454702
 H         -3.9700815145       -3.3182561730        2.6212042958
 H         -2.4935404308       -1.9549063348        4.0546019837
 H         -0.7384010484       -0.5293970015        3.0301291237
 H         -0.5006089731       -0.4708062384        0.5726263091
 H         -0.8346030101       -3.8692199048       -1.6415258368
 H          0.7330840500       -4.5666849683       -0.0173897012
 H          2.7796192652       -4.0189582472        1.2470658951
 H          3.8239331282       -1.8407550130        1.0501373518
 H          2.8845640968        0.5008223378       -1.7243793328
 C          4.2980706529        0.7913131000       -0.2001346054
 C          4.9295426473        0.5455202325        1.1348784481
 C          5.5119903288       -0.0821460351       -0.0972400374
 H          6.4464346530        0.3109391229       -0.4698846233
 H          5.3948794877       -1.1419904003       -0.2537709905
 H          5.4662027712        1.3671699943        1.5878242467
 H          4.3908154085       -0.0528311203        1.8505865920
 H          4.4689659944        1.7837971695       -0.6127249019
