  62
        -98.94048487
 C          2.3178365393        0.7765826565        0.1504268513
 C          3.0888333943        0.0912983981        1.1263948047
 C          3.9846696495       -0.9626751123        0.6352427036
 C          4.0170850551       -1.2320200453       -0.6821824145
 C          4.9179411886       -2.2417003105       -1.3309763005
 C          6.2441932658       -1.6041455668       -1.7681793274
 C          6.9169816189       -0.7690581199       -0.6786949679
 H          6.2933229662        0.1009318507       -0.4603389145
 H          7.8570118921       -0.3949999437       -1.0900844590
 C          7.1960610803       -1.5311525367        0.6243208774
 H          8.2093957181       -1.2963405114        0.9567376192
 H          7.1563173373       -2.6054517552        0.4409255201
 C          6.2558191977       -1.1792906243        1.7787135972
 H          6.2206243946       -0.0943141549        1.9052530028
 H          6.6719508667       -1.6021754417        2.6968785376
 C          4.8173442422       -1.6957649326        1.6489386688
 H          4.3206128664       -1.5418284299        2.6112316389
 H          4.8287720532       -2.7664904278        1.4352895109
 H          6.0505157604       -0.9558427359       -2.6259964035
 H          6.9197281179       -2.3990847067       -2.0892774606
 H          4.4099706903       -2.6416051252       -2.2102312296
 H          5.1063701096       -3.0536714938       -0.6312620406
 O          3.2523810100       -0.5717762357       -1.5865558729
 C          2.3865108577        0.4467322343       -1.2034203664
 O          1.7580252958        0.9447262143       -2.1571938885
 O          3.0316621775        0.3581421226        2.3562117845
 C          1.4081154793        1.8799074170        0.6618753215
 C          0.0133604781        1.3694172740        0.9204377708
 C         -0.6309389862        1.6246493975        2.1249537678
 C         -1.9188155705        1.1674450576        2.3449245066
 C         -2.5877212289        0.4465755694        1.3721622530
 C         -1.9529265242        0.1863109948        0.1644976915
 C         -0.6625516383        0.6470066874       -0.0532915858
 H         -0.1778136481        0.4520879335       -0.9990784459
 N         -2.6191344901       -0.5550996341       -0.8282384613
 S         -4.1458889795       -0.0292298899       -1.2948732555
 O         -4.3265299773       -0.5229996407       -2.6421961579
 O         -4.2921039556        1.3955639319       -1.1057287641
 C         -5.2464523029       -0.9066208301       -0.2042905763
 C         -5.1721119300       -2.2855657036       -0.1787621296
 C         -6.0241468203       -2.9859911006        0.6599887934
 C         -6.9329526110       -2.2998049854        1.4520084158
 C         -6.9982236248       -0.9154965303        1.4114653208
 C         -6.1477098492       -0.2085915211        0.5754373866
 H         -6.1580859232        0.8679818814        0.5145472736
 H         -7.7059299857       -0.3842094969        2.0273064891
 H         -7.5944733739       -2.8476758297        2.1043304671
 H         -5.9763272381       -4.0625317308        0.6939708491
 H         -4.4542987719       -2.7796002630       -0.8122922314
 H         -2.0461226378       -0.7327607869       -1.6412452446
 H         -3.5900148414        0.0868181083        1.5376732350
 H         -2.4068647091        1.3721795616        3.2854249485
 H         -0.1114179694        2.1765645253        2.8944594311
 H          1.8381239239        2.1646725675        1.6352082890
 C          1.4237497453        3.1223562738       -0.2193903954
 C          0.2634547666        3.5706751405       -1.0517846291
 C          0.6396363636        4.3378984892        0.1781252427
 H          1.0960340438        5.3094839971        0.0652851201
 H         -0.0119410558        4.2501082421        1.0344131032
 H          0.4792716319        3.9954354214       -2.0205226262
 H         -0.6444800129        2.9873477824       -1.0327771711
 H          2.4067936399        3.2990422291       -0.6450116516
