  62
        -98.94904042
 C          0.8755856615        1.3571285299        0.2350996208
 C          1.4325144106        0.2833511095        0.9664735910
 C          2.2673379902       -0.6507899110        0.2002461811
 C          2.3926196005       -0.4800913511       -1.1286398789
 C          3.2228407402       -1.3500601116       -2.0274875187
 C          4.6462010806       -0.7965510326       -2.1804804384
 C          5.3168020005       -0.4509190230       -0.8508085482
 H          6.3269092808       -0.1028956937       -1.0770691280
 H          4.7836870410        0.3846488273       -0.3915059283
 C          5.3875575595       -1.6166855231        0.1453454818
 H          5.2394780190       -2.5611216030       -0.3794533183
 H          6.3878742094       -1.6419839637        0.5824934420
 C          4.3967917293       -1.5198320124        1.3068751216
 H          4.6828655787       -2.2602319526        2.0585356716
 H          4.4749250699       -0.5339036125        1.7715786216
 C          2.9240966693       -1.7711765615        0.9573296612
 H          2.8300056788       -2.7145006614        0.4144848112
 H          2.3723011790       -1.8522547511        1.8982640211
 H          5.2479053702       -1.5341126630       -2.7148283783
 H          4.6005292813        0.1098597575       -2.7886218884
 H          3.2554252994       -2.3588620017       -1.6196789487
 H          2.7424562103       -1.3824459013       -3.0073810788
 O          1.8104633814        0.5418447993       -1.8050549590
 C          1.0393236218        1.4850750298       -1.1449432691
 O          0.5744773126        2.3770939901       -1.8806042992
 O          1.2359724902        0.1101659996        2.2001287909
 C         -0.0174918580        2.3522519405        0.9547872807
 C         -1.3967764479        2.3037894814        0.3453133204
 C         -2.1402649571        3.4303590719        0.0205204402
 C         -3.3748348971        3.2982780527       -0.5923602300
 C         -3.8814326078        2.0515943630       -0.9093525102
 C         -3.1516065387        0.9171343825       -0.5710435000
 C         -1.9390921887        1.0520495517        0.0817765402
 H         -1.3775290293        0.1675447114        0.3454768104
 N         -3.6275854194       -0.3690913372       -0.8635448501
 S         -2.5497175102       -1.6003766879       -1.2134185499
 O         -1.3736692197       -1.1300101686       -1.9079981797
 O         -3.3520282607       -2.5775852873       -1.9221167501
 C         -2.1200782309       -2.2736501182        0.3768257602
 C         -0.8109222112       -2.6278545690        0.6328381505
 C         -0.4984992519       -3.1990743592        1.8561673505
 C         -1.4948028322       -3.4002185986        2.7982499003
 C         -2.8053733819       -3.0379136077        2.5259732000
 C         -3.1256741313       -2.4732867075        1.3022146600
 H         -4.1320608210       -2.1818866468        1.0522028498
 H         -3.5766777822       -3.1936731372        3.2629141099
 H         -1.2451795127       -3.8402174188        3.7508205304
 H          0.5209052579       -3.4777061299        2.0687853807
 H         -0.0612311909       -2.4346049195       -0.1198243294
 H         -4.4493976493       -0.4024552366       -1.4488491203
 H         -4.8276243878        1.9526861836       -1.4190793004
 H         -3.9410298265        4.1813143830       -0.8474095502
 H         -1.7474181265        4.4116415016        0.2305662203
 H         -0.0816394285        1.9929250605        1.9928876806
 C          0.6013776529        3.7338368701        0.9507511608
 C          0.3184852933        4.6942848502        2.0662062808
 C          1.6673473329        4.0517079093        1.9548962510
 H          2.5057999033        4.6562503688        1.6430094212
 H          1.9265389522        3.2776556092        2.6624222911
 H          0.2327142440        5.7446581403        1.8321267307
 H         -0.3358605371        4.3622551706        2.8577553006
 H          0.7229107033        4.1299480200       -0.0513808392
