  62
        -98.94336261
 C         -1.1149585821       -1.2936238077       -0.1322457229
 C         -1.8937341889       -0.7946497267        0.9451128223
 C         -2.7893394126        0.3247157325        0.6382993090
 C         -2.7997827383        0.8464169230       -0.6011417457
 C         -3.6449414242        1.9985654957       -1.0724074294
 C         -5.0683190001        1.5987499932       -1.4857109585
 C         -6.0049029578        1.2366197766       -0.3322207918
 H         -5.9898326228        2.0338344602        0.4115764394
 H         -7.0158794980        1.1945894674       -0.7424853005
 C         -5.6907944545       -0.1063351859        0.3421233788
 H         -5.0464132472       -0.6998532622       -0.3106361555
 H         -6.6160222949       -0.6713410793        0.4761973737
 C         -5.0293367904        0.0123663823        1.7153250810
 H         -4.8172616228       -0.9952416509        2.0816010622
 H         -5.7214099013        0.4858348116        2.4152339073
 C         -3.7150853820        0.8040652321        1.7153311581
 H         -3.9221699976        1.8675780629        1.5973812080
 H         -3.2193441463        0.6446406369        2.6757442889
 H         -5.5012767324        2.4453332292       -2.0236744261
 H         -5.0076667938        0.7595335718       -2.1825578523
 H         -3.6946491749        2.7633684863       -0.2969704479
 H         -3.1412084795        2.4177512261       -1.9458166558
 O         -1.9987377704        0.3795343937       -1.5920416624
 C         -1.1557299944       -0.7071912471       -1.3975174257
 O         -0.5140594051       -1.0218307665       -2.4185148464
 O         -1.8475253511       -1.2737675904        2.1082014216
 C         -0.2370388261       -2.4973056492        0.1681870360
 C          1.1668805718       -2.0656016831        0.5012855767
 C          1.7802215894       -2.4470720093        1.6881853024
 C          3.0591421433       -2.0120863797        1.9943313143
 C          3.7499517058       -1.1847848125        1.1263461414
 C          3.1421791541       -0.7975982575       -0.0603671044
 C          1.8650938905       -1.2383812863       -0.3682414250
 H          1.4006955116       -0.9323563941       -1.2941375622
 N          3.8179952430        0.0888991508       -0.9348049854
 S          3.9049262469        1.6573618881       -0.3489486176
 O          4.2946468979        2.4818868754       -1.4693839496
 O          4.7856677280        1.6697184833        0.7908063238
 C          2.2419423754        2.0525422237        0.1643409231
 C          1.3887143348        2.6504256061       -0.7408828811
 C          0.0848518651        2.9182052653       -0.3571993115
 C         -0.3453770488        2.5682930918        0.9130958142
 C          0.5179849095        1.9511357100        1.8044281438
 C          1.8264057020        1.6922105222        1.4308324143
 H          2.5293538877        1.2262973698        2.1018777457
 H          0.1721954630        1.6650283818        2.7847791743
 H         -1.3602547961        2.7741615169        1.2128913413
 H         -0.5921238605        3.3925937418       -1.0495185883
 H          1.7622267975        2.9084866261       -1.7192156497
 H          3.3955044745        0.1133555948       -1.8536955922
 H          4.7352498700       -0.8142228930        1.3578673291
 H          3.5213158831       -2.3159623180        2.9211279753
 H          1.2416245788       -3.0755890298        2.3820481986
 H         -0.6720017121       -2.9348693232        1.0803829166
 C         -0.2948520232       -3.5637451826       -0.9179890556
 C          0.8652361450       -3.9324583818       -1.7889554109
 C          0.4096443110       -4.8729796302       -0.7165616455
 H         -0.0943159824       -5.7838856109       -1.0017766266
 H          1.0350075808       -4.9681279373        0.1584258588
 H          0.6569689768       -4.1754884187       -2.8198872352
 H          1.8010797225       -3.4150224130       -1.6482694378
 H         -1.2726850130       -3.6076755220       -1.3873395923
