  62
        -98.94175362
 C         -2.2065722400       -1.2565846593        0.2911419204
 C         -1.8150311798       -0.3058059798       -0.6839676400
 C         -2.6193167596        0.9279822503       -0.7324008306
 C         -3.6318048497        1.0968452908        0.1363371492
 C         -4.5126848696        2.3100391809        0.2081265586
 C         -3.9563430595        3.3510460113        1.1890948182
 C         -2.4767512495        3.6697445610        0.9747330782
 H         -1.8838137796        2.7826585810        1.2109714087
 H         -2.2003453594        4.4401172713        1.6980726379
 C         -2.1303895892        4.1488085903       -0.4419656220
 H         -1.4652545191        5.0116098103       -0.3659181123
 H         -3.0352628992        4.4814823902       -0.9516344122
 C         -1.4127437993        3.1086411499       -1.3039973514
 H         -0.5597629594        2.7090134200       -0.7500975712
 H         -1.0201679791        3.6175992594       -2.1883404216
 C         -2.2711223194        1.9349155398       -1.7931901910
 H         -1.6934750494        1.3875569593       -2.5440002307
 H         -3.1759007293        2.3174186497       -2.2701713313
 H         -4.0822641397        2.9722200818        2.2061922084
 H         -4.5445743394        4.2654072513        1.0930641177
 H         -5.5006389596        1.9955493612        0.5491378086
 H         -4.6042713394        2.7447005805       -0.7854416016
 O         -3.9437481699        0.1844477913        1.0924556596
 C         -3.2365522501       -1.0026995688        1.2003510002
 O         -3.6089207803       -1.7354095283        2.1387729805
 O         -0.8549025597       -0.4640821603       -1.4785587698
 C         -1.4937610902       -2.5899806994        0.4373594811
 C          0.0031489998       -2.4084200896        0.3588111912
 C          0.8276486098       -3.1398249501       -0.4859487784
 C          2.1974233398       -2.9387548802       -0.4776233584
 C          2.7738691799       -2.0004060999        0.3574628113
 C          1.9550716899       -1.2454426895        1.1885376608
 C          0.5867304499       -1.4649793493        1.1960515708
 H         -0.0470855901       -0.8808633189        1.8532062605
 N          2.5215605699       -0.2597572092        2.0120899005
 S          3.7818416801        0.6626742504        1.4146136902
 O          5.0262357200       -0.0387213197        1.6172600106
 O          3.6665347402        1.9351299507        2.0945339296
 C          3.4959196603        0.8637368197       -0.3360581499
 C          2.2387111504        1.2245180696       -0.7762419302
 C          2.0203361406        1.3742848590       -2.1353841403
 C          3.0619106406        1.1734701685       -3.0275811901
 C          4.3227526205        0.8229033986       -2.5704934398
 C          4.5433559804        0.6612593991       -1.2123352597
 H          5.5028495103        0.3739983492       -0.8134388895
 H          5.1311201106        0.6677810881       -3.2668118897
 H          2.8859493508        1.2881401381       -4.0854732502
 H          1.0327720806        1.6245336790       -2.4865321805
 H          1.4390112104        1.3674193500       -0.0665150504
 H          1.8488235000        0.3084804911        2.5044603901
 H          3.8396510599       -1.8391327701        0.3798870513
 H          2.8258003398       -3.5184620006       -1.1361811081
 H          0.3993438698       -3.8579359403       -1.1649008982
 H         -1.7301901104       -2.9260747389        1.4612551812
 C         -2.0166188203       -3.6692749697       -0.5008090785
 C         -3.4043254902       -3.6065047098       -1.0640177887
 C         -2.2217359101       -3.4189653203       -1.9636504986
 H         -1.9787007801       -4.2087775607       -2.6592187583
 H         -2.0069027399       -2.4288550405       -2.3326085790
 H         -3.9677450003       -4.5249698497       -1.1346207083
 H         -4.0089292901       -2.7444881396       -0.8212796391
 H         -1.6642789304       -4.6563525996       -0.2179483080
