  62
        -98.94348466
 C         -1.8674443884        0.8213532389       -0.7373586380
 C         -2.1862510442        0.4335431919        0.5864689842
 C         -3.6154956985        0.4576887719        0.9303232613
 C         -4.5094928935        0.8618141959        0.0094237297
 C         -5.9970366896        0.8794008253        0.2079761267
 C         -6.6319746148       -0.4424694673       -0.2463307159
 C         -5.9358427941       -1.6846890710        0.3099684836
 H         -6.4866940408       -2.5555942618       -0.0520408803
 H         -4.9281153490       -1.7462614867       -0.1075840505
 C         -5.8521647860       -1.7328622935        1.8420560785
 H         -6.1259328701       -2.7359595181        2.1758960591
 H         -6.5745968377       -1.0395662880        2.2743313145
 C         -4.4630324531       -1.4374337724        2.4109943568
 H         -4.4647114497       -1.7113819436        3.4693610917
 H         -3.7204765109       -2.0653719142        1.9119040178
 C         -3.9995477006        0.0217214804        2.3162082326
 H         -4.7664197329        0.6792904034        2.7303294658
 H         -3.0943736133        0.1222241558        2.9219810395
 H         -7.6806749104       -0.4445244389        0.0564336133
 H         -6.5933543726       -0.4881625175       -1.3372662653
 H         -6.4138342518        1.6950410728       -0.3852400298
 H         -6.2166265782        1.0580168942        1.2586560019
 O         -4.1598938690        1.2567999137       -1.2421579489
 C         -2.8366492634        1.2312296883       -1.6517320997
 O         -2.6549444824        1.5891354122       -2.8337077619
 O         -1.3255590604        0.0827040512        1.4343229152
 C         -0.4216808328        0.8040208344       -1.1963828249
 C          0.1798370628       -0.5682115047       -1.0113820736
 C         -0.5739593597       -1.6932807452       -1.3359590647
 C         -0.0532846542       -2.9627502372       -1.1811700401
 C          1.2401069208       -3.1387130092       -0.7216629992
 C          2.0083776910       -2.0238591707       -0.4128072316
 C          1.4755681447       -0.7491618268       -0.5532014761
 H          2.0884572317        0.1017812692       -0.3071488629
 N          3.3196535051       -2.1675745138        0.0622518857
 S          4.5172929511       -1.1176747479       -0.4472511176
 O          4.2979878664       -0.6747725407       -1.8042817552
 O          5.7531624727       -1.8329611727       -0.2071651875
 C          4.4323025435        0.2622156075        0.6744286721
 C          4.1462230830        0.0323291241        2.0055065668
 C          4.1290802572        1.1065368977        2.8807042138
 C          4.4055174706        2.3835518213        2.4162168918
 C          4.6972604023        2.5968083466        1.0779778141
 C          4.7113235296        1.5271201106        0.1961791542
 H          4.9210291659        1.6499260513       -0.8545658424
 H          4.9119131595        3.5905850407        0.7177259722
 H          4.3917595037        3.2175015654        3.1001945499
 H          3.8991012807        0.9447825945        3.9215560825
 H          3.9330204481       -0.9712153659        2.3334917190
 H          3.6533434413       -3.1188606555        0.1154348850
 H          1.6502531195       -4.1301697652       -0.6028189948
 H         -0.6557354491       -3.8244508163       -1.4273195338
 H         -1.5815003330       -1.5580242815       -1.7062487875
 H         -0.4392026730        1.0218024479       -2.2750577782
 C          0.3531009466        1.8996327762       -0.4924030466
 C          1.5033274726        2.5769507092       -1.1727227693
 C          0.2102724981        3.3091069492       -0.9797010343
 H          0.1716604493        4.1055785378       -0.2521280334
 H         -0.4225932877        3.4720111270       -1.8402323557
 H          2.3514335627        2.8713755083       -0.5731518614
 H          1.7613537566        2.2480275659       -2.1684846679
 H          0.4120447775        1.7421388545        0.5786077972
