  62
        -98.94090974
 C         -2.6548846252       -1.1004019142       -0.4150067953
 C         -2.1054783956        0.0485276754       -1.0344380034
 C         -2.9227063350        1.2691740938       -0.9606152041
 C         -4.1131614393        1.2338465224       -0.3355767623
 C         -5.0172053354        2.4154846662       -0.1397642917
 C         -4.7196727997        3.1279680414        1.1870615465
 C         -3.2366666583        3.4243462581        1.4122290877
 H         -3.1515918876        3.9546625911        2.3633565837
 H         -2.6940144925        2.4821499009        1.5239199699
 C         -2.5794337269        4.2573078455        0.3029310561
 H         -1.9655612860        5.0327484372        0.7659573607
 H         -3.3469920030        4.7595613257       -0.2872332650
 C         -1.6625734330        3.4626752044       -0.6290197701
 H         -1.0888544975        4.1754124974       -1.2277403057
 H         -0.9475622166        2.8857323851       -0.0353577154
 C         -2.3679130674        2.5096187292       -1.6024570400
 H         -3.1501859411        3.0478784434       -2.1413527155
 H         -1.6242781056        2.1650664533       -2.3268574627
 H         -5.2859147319        4.0607191137        1.2126508848
 H         -5.0690659378        2.4952295275        2.0061675098
 H         -6.0489332150        2.0602825283       -0.1271786933
 H         -4.8904206135        3.1057650163       -0.9713512691
 O         -4.6121805007        0.1099160217        0.2391105188
 C         -3.8923247189       -1.0716604194        0.2333184817
 O         -4.4542887165       -2.0165645440        0.8223656005
 O         -0.9961646645        0.0682467866       -1.6303519158
 C         -1.8948830988       -2.4179794839       -0.3714665879
 C         -0.7044121750       -2.2226278482        0.5356302308
 C         -0.8779368620       -2.3172166975        1.9137009362
 C          0.1689688459       -2.0522752283        2.7767897866
 C          1.4071277169       -1.6762160955        2.2851281632
 C          1.5859440881       -1.5706337933        0.9129234969
 C          0.5398424617       -1.8591009735        0.0461334866
 H          0.6873954297       -1.7562752344       -1.0170074544
 N          2.8378011451       -1.1718102694        0.4021161062
 S          3.5158770757        0.2001671406        1.1236529976
 O          4.2287664957       -0.2181164885        2.3059449995
 O          2.5044434409        1.2133296965        1.3268138088
 C          4.6729418601        0.7104556705       -0.1314577317
 C          4.2257713089        1.5267065876       -1.1534697077
 C          5.1141557950        1.8990334407       -2.1499351654
 C          6.4253452982        1.4483347778       -2.1093582094
 C          6.8583289232        0.6288813219       -1.0777113395
 C          5.9755540231        0.2531944256       -0.0774844545
 H          6.2663794304       -0.3759843103        0.7473876578
 H          7.8787045825        0.2822943946       -1.0495574863
 H          7.1136339217        1.7402266117       -2.8867534444
 H          4.7798114209        2.5367840357       -2.9524398149
 H          3.1992967976        1.8593234467       -1.1428155421
 H          2.7977495809       -1.0486518298       -0.6015245945
 H          2.2270274953       -1.4414057845        2.9450367355
 H          0.0193278670       -2.1294015233        3.8435354417
 H         -1.8530359511       -2.5819179288        2.2997094185
 H         -2.5711722948       -3.1400569084        0.1044478990
 C         -1.5406801927       -2.9203060459       -1.7552701698
 C         -1.0801681884       -4.3363296035       -1.9221323196
 C         -2.4324439865       -3.9242277221       -2.4189692322
 H         -2.5900470537       -3.8469878469       -3.4842924339
 H         -3.3026681113       -4.2579076196       -1.8727590931
 H         -0.3082303565       -4.5466339675       -2.6463923775
 H         -1.0309023926       -4.9499995406       -1.0353450753
 H         -1.0958048165       -2.1632353981       -2.3882181881
