  62
        -98.94099999
 C         -1.2471270267       -0.8248048223        0.6276153701
 C         -2.1058143764       -0.8329713200       -0.4951283189
 C         -2.8942121975        0.3912351438       -0.7240952125
 C         -2.7099598135        1.4504166429        0.0820792536
 C         -3.4431953530        2.7627371086        0.0481243989
 C         -4.6433694352        2.7393503193        1.0102159727
 C         -5.9373533509        2.1871091336        0.4132473901
 H         -6.6598010228        2.1017067758        1.2281642744
 H         -6.3362380398        2.9071468284       -0.3042954573
 C         -5.8130975780        0.8266767790       -0.2779202330
 H         -5.1875370335        0.1638144176        0.3224718791
 H         -6.8089860937        0.3815823840       -0.3208402403
 C         -5.2518539240        0.9230185741       -1.7044963202
 H         -5.9059761398        0.3773469858       -2.3876678189
 H         -5.2710705330        1.9647818946       -2.0245715551
 C         -3.8377192528        0.3522940749       -1.8952416982
 H         -3.3589390807        0.8548986379       -2.7428200907
 H         -3.9045439877       -0.7077018144       -2.1604397971
 H         -4.3589610872        2.1482068534        1.8844673279
 H         -4.8369110668        3.7577861098        1.3530369761
 H         -2.7358934809        3.5230017300        0.3867902610
 H         -3.7532249061        3.0031289597       -0.9646161433
 O         -1.8254618112        1.4384763060        1.1160774351
 C         -1.0722954299        0.3169572835        1.4081772154
 O         -0.2945215742        0.4579269348        2.3746383656
 O         -2.2253446085       -1.8187132489       -1.2704101871
 C         -0.3899588806       -2.0394169774        0.9479326924
 C          0.5789578454       -2.2422442703       -0.1922159749
 C          0.6700179858       -3.4016026559       -0.9484207951
 C          1.5394078934       -3.4594764714       -2.0252563503
 C          2.3225777055       -2.3736682754       -2.3688473557
 C          2.2523071426       -1.2128080955       -1.6031193696
 C          1.4011233711       -1.1685478793       -0.5130043917
 H          1.3320625412       -0.2669896578        0.0747293539
 N          3.0522827355       -0.1078762578       -1.9088803990
 S          2.7929706884        1.4298438077       -1.3190421810
 O          1.3900032940        1.7617425301       -1.2260162015
 O          3.5845675532        2.2688120205       -2.1951468996
 C          3.5689605536        1.3861787980        0.2829288773
 C          4.9361565228        1.1836572614        0.3108255030
 C          5.5835909693        1.1282573446        1.5333202019
 C          4.8561571011        1.2735136585        2.7056948974
 C          3.4867429674        1.4799621083        2.6614031605
 C          2.8331946756        1.5395315078        1.4395015319
 H          1.7651267935        1.6885538685        1.3852792519
 H          2.9112513627        1.5880263562        3.5669773910
 H          5.3577346256        1.2266253417        3.6594497825
 H          6.6492658601        0.9697575659        1.5705682938
 H          5.4632669038        1.0842381053       -0.6234166148
 H          3.5277799354       -0.1295238940       -2.7970431484
 H          2.9803484586       -2.4162722733       -3.2232679180
 H          1.5958502523       -4.3612213389       -2.6160980454
 H          0.0496054356       -4.2498267699       -0.7112675542
 H          0.1891563856       -1.7735019434        1.8440563304
 C         -1.2463579624       -3.2477088846        1.2564737650
 C         -0.6922641213       -4.3605445931        2.0928644218
 C         -1.7397607439       -3.4493156205        2.6565811520
 H         -2.7380457673       -3.8345297284        2.8004910325
 H         -1.4422803302       -2.7218823990        3.3980856251
 H         -0.9723668959       -5.3749793277        1.8530468969
 H          0.3187138243       -4.2553683939        2.4561248215
 H         -1.9222431735       -3.4998678235        0.4482033056
