  62
        -98.94480347
 C         -2.0181571116       -0.9781936117       -0.4427121227
 C         -3.0835153015       -1.2479977073        0.4537968022
 C         -4.3630199386       -0.6007450282        0.1476907614
 C         -4.4677247274        0.1896151761       -0.9359841899
 C         -5.7083237929        0.9093378042       -1.3904468341
 C         -5.9397933182        2.2547969326       -0.6889534297
 C         -6.3940717699        2.1599889266        0.7681745718
 H         -6.7269798407        3.1566947196        1.0646846572
 H         -7.2561693455        1.4956819268        0.8361534275
 C         -5.3036847129        1.6942400762        1.7432915787
 H         -4.3231006922        1.8039408648        1.2738246577
 H         -5.3073729634        2.3367143322        2.6267390005
 C         -5.4618088385        0.2538447739        2.2304831517
 H         -6.3780776489        0.1644925553        2.8182361185
 H         -4.6178607464        0.0196960081        2.8841317174
 C         -5.4971712135       -0.7924165080        1.1087952439
 H         -6.4515953486       -0.7500838342        0.5846010063
 H         -5.3878510111       -1.7818612412        1.5594018602
 H         -6.7088658297        2.7879972755       -1.2526673832
 H         -5.0197752128        2.8413605565       -0.7462489055
 H         -5.5859023878        1.0954060057       -2.4596924881
 H         -6.5783451255        0.2680534238       -1.2466141259
 O         -3.4259862402        0.4154943068       -1.7783413107
 C         -2.1743982653       -0.1390937038       -1.5459111400
 O         -1.3176376621        0.1820087386       -2.3920386585
 O         -2.9695414860       -1.9983489696        1.4586339169
 C         -0.6640814693       -1.5991609660       -0.1413632447
 C          0.2717280744       -0.5080321894        0.3154664379
 C          0.2506575871       -0.1004637188        1.6462160639
 C          1.0772360388        0.9158956048        2.0883468703
 C          1.9415538696        1.5484573021        1.2118612349
 C          1.9625818047        1.1542261546       -0.1191294189
 C          1.1410785995        0.1254686404       -0.5593045595
 H          1.1567773448       -0.1597804041       -1.5991822093
 N          2.8508969458        1.7871620322       -1.0102945565
 S          4.4638066790        1.7820340848       -0.5577076603
 O          4.7029956720        2.8455137504        0.3858542474
 O          5.2154943862        1.8512666857       -1.7910980106
 C          4.6930630315        0.2021100782        0.2395990671
 C          4.9409414425        0.1433339414        1.5955333321
 C          5.0456071748       -1.0973631469        2.2039106547
 C          4.8944170709       -2.2508866986        1.4505891583
 C          4.6477437440       -2.1752031585        0.0881913939
 C          4.5435557123       -0.9379269857       -0.5252944983
 H          4.3570813790       -0.8433184242       -1.5830467381
 H          4.5308492677       -3.0742117401       -0.4953839449
 H          4.9691048492       -3.2158699801        1.9266217456
 H          5.2384412970       -1.1598974623        3.2627420681
 H          5.0473925281        1.0649414535        2.1438960646
 H          2.7423084012        1.4807007887       -1.9662629390
 H          2.5955014540        2.3426672780        1.5343102545
 H          1.0499784675        1.2193647957        3.1237779383
 H         -0.4311279684       -0.5877494197        2.3289869354
 H         -0.8403093172       -2.2712389838        0.7091730052
 C         -0.1224758309       -2.4100333420       -1.3005936952
 C          1.0772652210       -3.2813924322       -1.0799335449
 C         -0.2712333599       -3.9004836841       -1.2884614522
 H         -0.4697433244       -4.4048677549       -2.2223780959
 H         -0.7667616330       -4.3465602307       -0.4388345679
 H          1.8063985492       -3.3627549192       -1.8714620739
 H          1.4989963699       -3.3010295554       -0.0864813366
 H         -0.2182035551       -1.9118021832       -2.2575359595
