  62
        -98.94089543
 C         -2.2854525838       -0.9225355782       -0.2239313082
 C         -3.6028736135       -1.2023122147        0.2135329162
 C         -4.6550794860       -0.3373545236       -0.3306519213
 C         -4.3339245411        0.6335831578       -1.2050974310
 C         -5.2970861621        1.5805748267       -1.8684367055
 C         -5.6489168025        2.8091514472       -1.0182992657
 C         -6.5648912758        2.5333734491        0.1747494429
 H         -7.4471645709        1.9898943799       -0.1645424908
 H         -6.9023822750        3.5016618987        0.5496030956
 C         -5.8947478762        1.7659578237        1.3230017269
 H         -6.1393770905        2.2458432209        2.2732843065
 H         -4.8091478829        1.8165142069        1.2096537810
 C         -6.3135713918        0.2999364338        1.4349951336
 H         -7.3765560732        0.2402677122        1.6785138269
 H         -5.7538491710       -0.1545827577        2.2563722844
 C         -6.0549834248       -0.5295856509        0.1702051120
 H         -6.7756059084       -0.2693933920       -0.6045436200
 H         -6.1754976769       -1.5859432080        0.4219620890
 H         -6.1472607705        3.5268621713       -1.6740058288
 H         -4.7210133209        3.2676308060       -0.6682948271
 H         -4.8123653880        1.9235133448       -2.7850613406
 H         -6.2097717421        1.0474507727       -2.1359480364
 O         -3.0562450820        0.8603960083       -1.6132921037
 C         -1.9993905588        0.1094837010       -1.1172252158
 O         -0.8820287847        0.4530673929       -1.5501186165
 H          1.5626005161       -1.2920943624       -0.0963753042
 C          1.1520691742       -0.7462508285        0.7351904284
 C         -0.1851151023       -0.8751125595        1.0743269408
 C         -0.6751767585       -0.1477458898        2.1570226123
 C          0.1491952142        0.6997677185        2.8695803353
 C          1.4780936501        0.8457904606        2.5111522570
 C          1.9804159783        0.1182749509        1.4393732168
 N          3.3429312770        0.2196406002        1.0944334557
 S          3.7975122847        0.3817727173       -0.5251371470
 O          3.2497809156        1.6002261031       -1.0805551446
 O          3.5118706267       -0.8414044641       -1.2285392056
 C          5.5617279054        0.5515468341       -0.3161818206
 C          6.1394872114        1.8056505528       -0.3685393390
 C          7.5075866561        1.9229544678       -0.1781833114
 C          8.2701269265        0.7903410761        0.0633150168
 C          7.6762915152       -0.4622911485        0.1118704775
 C          6.3094258725       -0.5862203835       -0.0790702412
 H          5.8057685530       -1.5384278732       -0.0588601400
 H          8.2729063186       -1.3409984163        0.2967405576
 H          9.3343551550        0.8839712865        0.2114702984
 H          7.9720929118        2.8950546880       -0.2192315930
 H          5.5081304813        2.6566980484       -0.5681270697
 H          3.8072371951        0.9415141871        1.6317568840
 H          2.1216115210        1.5174149494        3.0596334098
 H         -0.2452186108        1.2590892520        3.7047531277
 H         -1.7175771641       -0.2542591929        2.4259093951
 C         -1.1415464962       -1.7623018696        0.3168724156
 H         -1.6050143518       -2.4576212890        1.0326230382
 C         -0.4909604030       -2.5655772044       -0.7879730055
 C          0.2423013485       -3.8304963361       -0.4594745418
 C         -1.0769655997       -3.8911926202       -1.1674018439
 H         -1.0925785490       -4.1671287819       -2.2111300032
 H         -1.9408540443       -4.2277830477       -0.6129230496
 H          0.2758499942       -4.1312771806        0.5767503463
 H          1.1380400190       -4.0619610882       -1.0158198225
 H         -0.1016699063       -1.9441388737       -1.5876322225
 O         -3.8842030454       -2.1282571886        1.0203605049
