  62
        -98.94619433
 C         -1.3970887671       -1.1258132845       -0.1519913208
 C         -2.5119316475       -1.1628228579        0.7228215135
 C         -3.2625087712        0.0908691496        0.8659754396
 C         -2.8402727041        1.1864156347        0.2084673550
 C         -3.5352190498        2.5164102703        0.2310361123
 C         -4.5507524620        2.6309421320       -0.9143127762
 C         -5.4942628373        1.4332108917       -1.0239213785
 H         -6.1860960043        1.6374595148       -1.8439885031
 H         -4.9174985826        0.5486342790       -1.3033756660
 C         -6.2912078725        1.1338561430        0.2535185481
 H         -7.3308500315        0.9405992368       -0.0193777596
 H         -6.2860408309        2.0067062717        0.9074316185
 C         -5.8022882974       -0.0872734743        1.0348219048
 H         -6.5569652999       -0.3341872054        1.7864375431
 H         -5.7202386634       -0.9441452710        0.3612771859
 C         -4.4649848299        0.0802433429        1.7673952470
 H         -4.4942126722        0.9807993576        2.3841922350
 H         -4.3377219616       -0.7830496184        2.4271602277
 H         -4.0035699332        2.7219105603       -1.8553058116
 H         -5.1333570811        3.5426876656       -0.7700413300
 H         -4.0370492198        2.6426023180        1.1883182313
 H         -2.7860497536        3.3013086128        0.1187975468
 O         -1.7503568594        1.1919989104       -0.5975893764
 C         -1.0028638284        0.0425897875       -0.8063700482
 O         -0.0425729481        0.1981971689       -1.5828968909
 H          1.7983688811       -1.5339301230       -1.3871535961
 C          1.8514765229       -1.6748138236       -0.3196213206
 C          0.7470674294       -2.1498966869        0.3710627382
 C          0.8388129734       -2.2999261816        1.7520424826
 C          2.0049170180       -1.9807026729        2.4225686232
 C          3.0991485856       -1.4873199018        1.7324737096
 C          3.0115626432       -1.3237423046        0.3567352598
 N          4.1077088405       -0.7808063494       -0.3498917870
 S          4.5345997534        0.7903412064        0.0465862421
 O          5.4637660136        1.2057055897       -0.9798880795
 O          5.0348067066        0.8063647007        1.3985651024
 C          3.0371161204        1.7533429834       -0.0583194107
 C          2.1680790794        1.7698106970        1.0137962730
 C          0.9898389291        2.4900488333        0.9068476370
 C          0.7036047472        3.1779762425       -0.2612086356
 C          1.5849056261        3.1485632986       -1.3294101265
 C          2.7611408773        2.4250693150       -1.2314401941
 H          3.4739510182        2.3760808863       -2.0391986405
 H          1.3525301623        3.6768690545       -2.2401298245
 H         -0.2179655301        3.7322336469       -0.3438883859
 H          0.2941078691        2.5030254406        1.7316503973
 H          2.4237242195        1.2266500271        1.9093300078
 H          3.9869945511       -0.8367289631       -1.3521644118
 H          4.0065090968       -1.2031834017        2.2403744191
 H          2.0623295574       -2.1086516955        3.4930663942
 H         -0.0249560184       -2.6556426523        2.2961976986
 C         -0.5744897229       -2.3949251831       -0.3115501241
 H         -1.1155975601       -3.1678388752        0.2499953408
 C         -0.4544268446       -2.8332173499       -1.7552860141
 C          0.0384224030       -4.2151237200       -2.0613369237
 C         -1.4005550498       -3.8648551914       -2.2891946507
 H         -1.7528406290       -3.7634817768       -3.3048427055
 H         -2.1382619893       -4.2670443260       -1.6103820059
 H          0.6757727669       -4.3584025112       -2.9205208469
 H          0.2785712859       -4.8540302714       -1.2249805046
 H         -0.1698224265       -2.0331931975       -2.4274083960
 O         -2.8616102220       -2.1962830179        1.3533099668
