  62
        -98.94490403
 C         -1.9199373566       -0.1438984506        0.0639486496
 C         -2.9283026380       -1.0027275871        0.5635143940
 C         -4.2438531923       -0.3891741562        0.7735261103
 C         -4.4174151316        0.9202908289        0.5171386830
 C         -5.6926495124        1.6963885984        0.7062945388
 C         -6.6703829369        1.5876407070       -0.4718575908
 C         -7.3794431218        0.2394456478       -0.6065613901
 H         -7.8372332649       -0.0256693353        0.3469626296
 H         -8.1867600789        0.3732901210       -1.3293433556
 C         -6.4758050346       -0.9064569828       -1.0829144793
 H         -6.9850025340       -1.4692123266       -1.8685853226
 H         -5.5658855492       -0.4934109392       -1.5245208164
 C         -6.0871041681       -1.9030907460        0.0091127816
 H         -5.4185907904       -2.6480188826       -0.4298587749
 H         -6.9795678565       -2.4209891019        0.3672462325
 C         -5.3715588913       -1.2741495180        1.2118241029
 H         -4.9466048941       -2.0785836405        1.8171103649
 H         -6.0807657518       -0.7145419297        1.8211808424
 H         -6.1303888091        1.8096654359       -1.3952782254
 H         -7.4296707490        2.3615173965       -0.3373168097
 H         -6.1872948064        1.3716969017        1.6221628676
 H         -5.4044557587        2.7437805136        0.8187607281
 O         -3.4149669978        1.7180122335        0.0610517986
 C         -2.1498315015        1.2070410093       -0.1953446234
 O         -1.3395425941        2.0442491251       -0.6358237501
 O         -2.7350134726       -2.2194169745        0.8280900709
 C         -0.5392250684       -0.7170698942       -0.2024464175
 C          0.4908297659        0.0321290153        0.6045975102
 C          0.3201172419        0.1158049159        1.9852067200
 C          1.2168220662        0.8149931725        2.7677334189
 C          2.3127799650        1.4357031645        2.1927992043
 C          2.4972403166        1.3532592718        0.8188768404
 C          1.5922495359        0.6488117587        0.0341689978
 H          1.7533913333        0.6192153027       -1.0298202473
 N          3.5929718361        1.9858243177        0.2088123812
 S          4.5111011485        1.1743628175       -0.9276715248
 O          5.7262360788        1.9515196494       -1.0331685219
 O          3.7636845654        0.9916929203       -2.1448018727
 C          4.8605118334       -0.3995301933       -0.1655497427
 C          5.8886987986       -0.4661965659        0.7547985586
 C          6.1281574544       -1.6641362171        1.4076396053
 C          5.3324946856       -2.7674713487        1.1377231453
 C          4.3048780532       -2.6840325633        0.2111824818
 C          4.0633341578       -1.4895405983       -0.4493508584
 H          3.2773375530       -1.3880040579       -1.1790520203
 H          3.6883526366       -3.5434409989        0.0008322309
 H          5.5151514423       -3.6989165754        1.6500249445
 H          6.9301408232       -1.7339398372        2.1247287071
 H          6.4892666765        0.4120571825        0.9280738553
 H          4.1864557161        2.4948914799        0.8474585269
 H          3.0111196791        1.9903997151        2.8008993021
 H          1.0653516838        0.8774032910        3.8347921509
 H         -0.5378509416       -0.3669525658        2.4330877922
 H         -0.5809224373       -1.7525283639        0.1670449733
 C         -0.2567399099       -0.7436549753       -1.6891647216
 C          0.6487509260       -1.7892809581       -2.2653569114
 C         -0.8270715771       -1.8537871288       -2.5181691618
 H         -1.1952677899       -1.6222273464       -3.5064253165
 H         -1.4005117608       -2.6116843063       -2.0045321467
 H          1.3022117236       -1.5129041371       -3.0799229686
 H          1.0683865688       -2.5135904123       -1.5833419146
 H         -0.2410613658        0.2462337643       -2.1324167443
