  62
        -98.93735321
 C         -1.9550555985       -0.8870104427        0.5344423761
 C         -2.2442639885       -0.2176099585       -0.6754626902
 C         -2.6565998022        1.1957548216       -0.5693884649
 C         -2.6863812109        1.7723903482        0.6463916982
 C         -3.1125539334        3.1737541944        0.9924721878
 C         -4.6423581626        3.3460617784        0.9797681469
 C         -5.3644436064        2.6407322953       -0.1662915824
 H         -5.1042859502        1.5805916003       -0.1540780123
 H         -6.4385729573        2.7130951891        0.0236618866
 C         -5.0974925938        3.2135381666       -1.5560568610
 H         -5.6975798197        2.6394061279       -2.2664673009
 H         -5.4444481434        4.2489378634       -1.5874733843
 C         -3.6420519982        3.1815042453       -2.0234472607
 H         -3.6355226201        3.4416133581       -3.0861079219
 H         -3.0559862564        3.9424004786       -1.5152760048
 C         -2.9586164516        1.8215128419       -1.9098481195
 H         -3.5494669725        1.0777262481       -2.4563099913
 H         -1.9968331704        1.8705926496       -2.4356519846
 H         -4.8700888655        4.4128287801        0.9558464628
 H         -5.0318212008        2.9380830405        1.9155342011
 H         -2.7469199197        3.3732425064        2.0021947475
 H         -2.6309615858        3.8803724458        0.3228109352
 O         -2.3628046371        1.0953091182        1.7861523319
 C         -1.9884992882       -0.2331454984        1.7636358251
 O         -1.7193369393       -0.7164113716        2.8845975830
 H          0.5688782818       -0.6970559177        0.3911409679
 C          0.7101806567       -1.5604225622       -0.2442950182
 C         -0.2880851177       -2.5228896022       -0.3250518733
 C         -0.0803128240       -3.6274782858       -1.1416327647
 C          1.0955981505       -3.7545425641       -1.8606624363
 C          2.0862974687       -2.7945570846       -1.7768220254
 C          1.8860423739       -1.6819753365       -0.9656797290
 N          2.8553158542       -0.6678006825       -0.8944087572
 S          2.9571250402        0.2936565393        0.4847543123
 O          2.9660586013       -0.5323655501        1.6721686493
 O          1.9430445422        1.3172858233        0.4180097716
 C          4.5669682925        1.0203982465        0.2374954559
 C          4.6798372266        2.1389187831       -0.5663394084
 C          5.9356806030        2.6827387074       -0.7854105296
 C          7.0517580457        2.1020663255       -0.2014546496
 C          6.9229529285        0.9811192677        0.6048561288
 C          5.6699885101        0.4317915080        0.8272001938
 H          5.5194932763       -0.4321537927        1.4543980914
 H          7.7915091095        0.5340390312        1.0607602249
 H          8.0276063091        2.5279080760       -0.3732009816
 H          6.0386682295        3.5560917775       -1.4089676861
 H          3.7828723077        2.5596190912       -0.9903663690
 H          3.7645146867       -0.9600668344       -1.2250170557
 H          3.0022553882       -2.8957323232       -2.3384427702
 H          1.2439924808       -4.6172839065       -2.4922000645
 H         -0.8399588498       -4.3882895050       -1.2156127228
 C         -1.5320457713       -2.3428164099        0.5123991072
 H         -1.2740507611       -2.5979464112        1.5522035767
 C         -2.6879079741       -3.2161461811        0.0666753473
 C         -2.8474765858       -4.6029333035        0.6111552518
 C         -3.7825178986       -3.5155964860        1.0449297530
 H         -4.8017514728       -3.5353338266        0.6895844284
 H         -3.6753186780       -3.1131505626        2.0422442664
 H         -3.2295940601       -5.3727440007       -0.0422196553
 H         -2.1121623840       -4.9488790060        1.3220069345
 H         -2.9721939999       -3.0304305731       -0.9626969837
 O         -2.1761603607       -0.7741350347       -1.8037344514
