  62
        -98.94445038
 C         -2.7075181452       -1.0205214095        0.1593861753
 C         -2.4766795644       -0.1349885287       -0.9219801614
 C         -3.0063403028        1.2272724093       -0.7606936447
 C         -3.7109096269        1.5412592494        0.3406828072
 C         -4.2506831657        2.9045351201        0.6585700634
 C         -3.2465500678        3.7163532724        1.4888498890
 C         -1.8256835834        3.7141262232        0.9232265970
 H         -1.2166817371        4.3475814194        1.5719779332
 H         -1.4097349278        2.7051896094        0.9846614172
 C         -1.7143161755        4.2135697254       -0.5238733794
 H         -2.6055984227        4.7836169654       -0.7902880779
 H         -0.8601605742        4.8902639419       -0.5943753697
 C         -1.4887854486        3.1103909130       -1.5600587676
 H         -0.6513538267        2.4792818979       -1.2456548729
 H         -1.1990765500        3.5840405938       -2.5025892164
 C         -2.7014164294        2.2155283630       -1.8503321702
 H         -3.5729475014        2.8368702598       -2.0666966638
 H         -2.4718198806        1.6227181955       -2.7406446083
 H         -3.6082704030        4.7437305970        1.5592795425
 H         -3.2119611383        3.2971899854        2.4969459266
 H         -4.4774328147        3.4259822428       -0.2690947132
 H         -5.1705802212        2.7847887122        1.2333057053
 O         -3.9722582399        0.6459370556        1.3263559295
 C         -3.4449650343       -0.6321252101        1.2824426250
 O         -3.7101113969       -1.3281670333        2.2824129459
 H         -0.0780106785       -1.8086229383       -1.5062119246
 C          0.2636264567       -1.8781541877       -0.4851608441
 C         -0.6309522272       -2.2257754548        0.5167381772
 C         -0.1724097833       -2.2717080272        1.8295646037
 C          1.1430457784       -1.9662663468        2.1290907155
 C          2.0218636424       -1.5842600230        1.1301182992
 C          1.5699296396       -1.5285501322       -0.1808710810
 N          2.4420570577       -1.0702977058       -1.1949128855
 S          2.8656482814        0.5545715468       -1.0304889728
 O          1.8452157018        1.3028505301       -0.3325062327
 O          3.2026893788        1.0079774239       -2.3627400166
 C          4.3517144489        0.4857938876       -0.0512686488
 C          5.4152254061       -0.2493122975       -0.5380478778
 C          6.5796988509       -0.3169210801        0.2098183412
 C          6.6615274703        0.3500653732        1.4233894084
 C          5.5862407594        1.0863914910        1.8964706058
 C          4.4175091513        1.1565501116        1.1538175918
 H          3.5527274345        1.7096410972        1.4842594411
 H          5.6513297964        1.6041382880        2.8399861002
 H          7.5686335690        0.2956700571        2.0043136080
 H          7.4179143708       -0.8888230688       -0.1542054662
 H          5.3091008331       -0.7489776030       -1.4863549567
 H          2.0560545285       -1.2088582860       -2.1197527910
 H          3.0412509444       -1.3178922746        1.3583790918
 H          1.4836535331       -2.0093215267        3.1524515671
 H         -0.8685794155       -2.5223556364        2.6176086364
 C         -2.0983384192       -2.4157940378        0.2177015206
 H         -2.5627026382       -2.9112925388        1.0800196163
 C         -2.3679345967       -3.2452352380       -1.0195824808
 C         -2.1423133848       -4.7254511378       -0.9608998858
 C         -3.5369990141       -4.1818709921       -1.0286509348
 H         -4.0941749062       -4.2993051429       -1.9459689489
 H         -4.1477596426       -4.2273985448       -0.1387352885
 H         -1.8057484364       -5.1406811816       -0.0229924849
 H         -1.7403551603       -5.2204565102       -1.8315534591
 H         -2.1407982667       -2.7344514934       -1.9458209323
 O         -1.8646942922       -0.4441586406       -1.9796685595
