  62
        -98.93581217
 C          2.2359011083        1.3051883837        0.1488522843
 C          3.1573679608        0.5745591089        0.9375819257
 C          3.8708661780       -0.5339975672        0.2808579871
 C          3.5778726809       -0.8398575322       -0.9966290948
 C          4.1592689886       -1.8810416193       -1.9299353554
 C          4.9996737732       -3.0340201049       -1.3871437208
 C          4.2342356632       -4.0301647651       -0.5171171478
 H          3.5282221446       -4.5749828354       -1.1491401909
 H          4.9485535492       -4.7525473863       -0.1162364732
 C          3.4416053907       -3.4240730004        0.6386242409
 H          2.6456999527       -2.7873393810        0.2442477176
 H          2.9551829003       -4.2432651715        1.1758015353
 C          4.2650705103       -2.6283206748        1.6500972038
 H          5.0868709571       -3.2447475013        2.0191540695
 H          3.6122118922       -2.3996104136        2.4969747509
 C          4.8405935996       -1.2962719602        1.1373345592
 H          5.7795891375       -1.4475294867        0.6102988968
 H          5.0478875916       -0.6635001568        2.0051993450
 H          5.8657499550       -2.6519267138       -0.8548219015
 H          5.3765562153       -3.5789180440       -2.2568724062
 H          3.3071817135       -2.2879815993       -2.4840458401
 H          4.7623684594       -1.3255016983       -2.6567408293
 O          2.6445598087       -0.1398470152       -1.7035904248
 C          1.9413869962        0.9270624561       -1.1616465475
 O          1.1128529419        1.4282981502       -1.9422148835
 O          3.3795348559        0.8373385855        2.1507253616
 C          1.4755667335        2.4382048731        0.8171529807
 C         -0.0018384804        2.2370993123        0.5955095166
 C         -0.8060431157        3.1116274113       -0.1215120838
 C         -2.1446244520        2.8228647404       -0.3240281483
 C         -2.7081587827        1.6661745631        0.1827477241
 C         -1.9121806601        0.7849678757        0.9031038675
 C         -0.5751263338        1.0796552156        1.1093888890
 H          0.0485444703        0.3853062460        1.6613836640
 N         -2.4802640668       -0.4017611155        1.4191309747
 S         -3.0011156884       -1.5161274534        0.2674957668
 O         -3.0290499222       -2.7869511832        0.9604475240
 O         -2.1949401217       -1.4593339127       -0.9312900319
 C         -4.6695575761       -1.0084991576       -0.0853282599
 C         -5.5898555329       -1.0325280978        0.9445465409
 C         -6.8930192921       -0.6394978060        0.6850202888
 C         -7.2514750196       -0.2342674517       -0.5922723318
 C         -6.3159060205       -0.2187426934       -1.6155694475
 C         -5.0099443171       -0.6093023606       -1.3626523789
 H         -4.2450593979       -0.6066851369       -2.1229813109
 H         -6.5958800838        0.0967400176       -2.6077810458
 H         -8.2663044484        0.0713088784       -0.7921379292
 H         -7.6235606623       -0.6499020990        1.4776842302
 H         -5.2690512053       -1.3598730834        1.9192843627
 H         -1.8692175015       -0.8737124102        2.0721441140
 H         -3.7493270195        1.4382172347        0.0222370414
 H         -2.7570461647        3.5064818374       -0.8918971248
 H         -0.3766643628        4.0034126394       -0.5473953831
 H          1.6782370764        2.2998396322        1.8926591646
 C          1.9642129414        3.8340821833        0.4658679374
 C          3.4026799622        4.0773275818        0.1219307887
 C          2.3441309515        4.2392455815       -0.9254433556
 H          2.0967316996        5.2396709424       -1.2496193053
 H          2.2667820340        3.4970635772       -1.7037959772
 H          3.8832281697        4.9616512689        0.5125839003
 H          4.0526300353        3.2161739054        0.0616934376
 H          1.4823746459        4.5916579920        1.0765500200
