  62
        -98.94114397
 C         -2.4711145232       -1.3659004654       -0.0415227040
 C         -3.2869186721       -0.7759438102        0.9599702741
 C         -4.2160826587        0.2677645163        0.5164920440
 C         -4.2600545833        0.6095345592       -0.7835582623
 C         -5.1759888541        1.6300636643       -1.4028498091
 C         -4.6724449688        3.0754553028       -1.2896524330
 C         -4.7560955304        3.6857856006        0.1099584450
 H         -4.5837988765        4.7585060251        0.0022551004
 H         -5.7650753731        3.5554430120        0.5023545305
 C         -3.7361218775        3.1213009575        1.1089761016
 H         -2.9391309938        2.6058101875        0.5669139352
 H         -3.2662836177        3.9432853548        1.6540400599
 C         -4.3261560537        2.1674291126        2.1479027225
 H         -3.5099646747        1.7980760991        2.7741197547
 H         -5.0239563320        2.7108721664        2.7887732328
 C         -5.0534202811        0.9551783227        1.5521750112
 H         -6.0084622032        1.2617284393        1.1259347316
 H         -5.2404972449        0.2389738306        2.3559418755
 H         -3.6390262726        3.1155262810       -1.6425478668
 H         -5.2776186171        3.6846074254       -1.9650897803
 H         -6.1660346444        1.5529773691       -0.9523722237
 H         -5.2542845246        1.3748897859       -2.4619110607
 O         -3.4632460723        0.0248312671       -1.7148064005
 C         -2.5411564936       -0.9590915153       -1.3741202751
 O         -1.8754155615       -1.3669317118       -2.3453159300
 O         -3.2498736247       -1.1221421737        2.1706699804
 C         -1.5285223644       -2.4670832125        0.4146623550
 C         -0.1458276470       -1.9303858004        0.6824827582
 C          0.4684979334       -2.1164133471        1.9151690703
 C          1.7346262460       -1.6104587482        2.1542264911
 C          2.4149848182       -0.9160327173        1.1700516287
 C          1.8063294616       -0.7169104217       -0.0624386656
 C          0.5353305663       -1.2208364055       -0.2976126941
 H          0.0643899439       -1.0617065303       -1.2568912528
 N          2.4917521573       -0.0240077963       -1.0766741944
 S          3.1474488567        1.4741233989       -0.6947127883
 O          2.4047678547        2.1228752297        0.3619128184
 O          3.2336800465        2.1858030853       -1.9512261369
 C          4.7926475067        1.0816651468       -0.1372673822
 C          5.2341781092        1.5407849453        1.0881557949
 C          6.5215785492        1.2277010423        1.4965589988
 C          7.3397691738        0.4658514493        0.6766153571
 C          6.8819965767        0.0149129344       -0.5526717277
 C          5.5969866988        0.3257356772       -0.9676652470
 H          5.2036385129       -0.0023909902       -1.9153271019
 H          7.5209286451       -0.5775828438       -1.1875290128
 H          8.3402675634        0.2220786908        0.9973083891
 H          6.8792852683        1.5780831891        2.4513875057
 H          4.5597287794        2.1239671223        1.6948305338
 H          1.9737693658        0.0252584312       -1.9428495491
 H          3.4015834778       -0.5211111125        1.3494825395
 H          2.1984832830       -1.7603030232        3.1170895246
 H         -0.0603105277       -2.6475631062        2.6930022448
 H         -1.9444853060       -2.7970303514        1.3798040017
 C         -1.5341597900       -3.6745312270       -0.5144421336
 C         -0.3650413253       -4.0973994037       -1.3477340411
 C         -0.7546368055       -4.9027887054       -0.1471108783
 H         -1.2107270845       -5.8699957759       -0.2932736192
 H         -0.1161875816       -4.8394254231        0.7212282192
 H         -0.5725559957       -4.4909649029       -2.3312219991
 H          0.5404868869       -3.5140301466       -1.2975649239
 H         -2.5136679298       -3.8349891580       -0.9544023076
