  62
        -98.93587293
 C         -2.3807057553       -0.7142623005        0.2248244891
 C         -2.5127820599        0.6983695987        0.2412293736
 C         -3.7441844535        1.2502833308       -0.3375604795
 C         -4.6565170265        0.4091917889       -0.8572034030
 C         -5.9792187744        0.8237540914       -1.4325044810
 C         -7.0773860590        0.8182183810       -0.3599544978
 C         -6.6906822467        1.5541133413        0.9228693457
 H         -7.5506900055        1.5119063356        1.5946778296
 H         -5.8749070456        1.0157091511        1.4108527706
 C         -6.2760310293        3.0173578066        0.7144816913
 H         -6.6267739147        3.3675258837       -0.2569067741
 H         -6.7621050785        3.6311050990        1.4757348457
 C         -4.7721170544        3.2732541919        0.8312339515
 H         -4.6135086046        4.3536679524        0.8855476405
 H         -4.3969671070        2.8414739598        1.7627237267
 C         -3.9125235884        2.7436210908       -0.3237693524
 H         -4.3184146265        3.0939956221       -1.2751522044
 H         -2.9060927189        3.1567513030       -0.2065945211
 H         -7.3055752065       -0.2188617841       -0.1038632419
 H         -7.9760298585        1.2698527749       -0.7837927999
 H         -5.8842802381        1.8174175873       -1.8658948157
 H         -6.2483182183        0.1171487305       -2.2192658047
 O         -4.4915260410       -0.9356787980       -0.8723205102
 C         -3.3592126815       -1.5385561711       -0.3338736703
 O         -3.3684700960       -2.7786387674       -0.4260578001
 H          1.4551063401       -0.4634146847        0.9877173467
 C          1.2470662762       -0.9787402729        0.0621135389
 C         -0.0302928223       -1.4565035769       -0.1934848761
 C         -0.2781098013       -2.0961661320       -1.4042240790
 C          0.7335604267       -2.2466223969       -2.3347405552
 C          2.0045836121       -1.7637870358       -2.0789230629
 C          2.2655882709       -1.1295138950       -0.8693663237
 N          3.5631156503       -0.6806796682       -0.5718337040
 S          3.7796127265        0.7104831425        0.3596819761
 O          3.5159788378        0.3897498077        1.7395594314
 O          3.0325351225        1.8116827101       -0.2051962610
 C          5.5291339805        0.9626924568        0.1263533981
 C          6.4115552417        0.2018963481        0.8699154123
 C          7.7726396893        0.3711680742        0.6725485879
 C          8.2264577410        1.2926756696       -0.2595877227
 C          7.3290712920        2.0506127008       -0.9965593745
 C          5.9661755690        1.8851425336       -0.8052019324
 H          5.2316422388        2.4579160627       -1.3484060627
 H          7.6847414450        2.7686593701       -1.7177852276
 H          9.2863647454        1.4232451636       -0.4105405704
 H          8.4735129031       -0.2140318486        1.2456440697
 H          6.0126665412       -0.4944762383        1.5887960841
 H          4.1639849731       -0.6675847185       -1.3851915603
 H          2.7911248606       -1.8800293407       -2.8089940538
 H          0.5285495860       -2.7424881753       -3.2716658187
 H         -1.2681901690       -2.4773548711       -1.6035032541
 C         -1.1151881319       -1.2838756818        0.8397118163
 H         -0.7699880663       -0.5064713342        1.5414384413
 C         -1.3558038627       -2.5494131449        1.6523410079
 C         -0.8741099845       -3.9037064438        1.2370081189
 C         -0.2149541713       -3.1967925158        2.3805819895
 H         -0.3814824211       -3.5602938015        3.3833160385
 H          0.7713243813       -2.7875120574        2.2170366207
 H         -1.5166393674       -4.7455371024        1.4440950197
 H         -0.3321236264       -3.9891651972        0.3087938369
 H         -2.3086718399       -2.5187244630        2.1713907583
 O         -1.6376930077        1.4650863184        0.7301080714
