  62
        -98.94423798
 C          1.9732858251        1.1683524732       -0.1856847912
 C          2.3842141634       -0.0217353969       -0.8330238241
 C          3.8302576427       -0.2907889262       -0.8167053104
 C          4.6594766057        0.5856102824       -0.2214755526
 C          6.1435250950        0.4072864299       -0.0871302987
 C          6.5003574249       -0.3097557563        1.2225612132
 C          5.6877173317       -1.5802223177        1.4726039724
 H          6.0448264566       -2.0158318818        2.4082601753
 H          4.6397335535       -1.3105901290        1.6228748503
 C          5.7841416020       -2.6258029309        0.3528423250
 H          6.6543060159       -2.4209929621       -0.2719085213
 H          5.9329153086       -3.6093520235        0.8034397053
 C          4.5392396406       -2.7250264760       -0.5308782142
 H          3.6508777786       -2.8384742973        0.0959950728
 H          4.6258622891       -3.6284236962       -1.1407122014
 C          4.3049089261       -1.5490282828       -1.4873871081
 H          5.2104352478       -1.3599289684       -2.0676932384
 H          3.5074720284       -1.8379124836       -2.1786437746
 H          7.5639809763       -0.5540203179        1.2034654773
 H          6.3241935794        0.3780863345        2.0526938958
 H          6.5139369458       -0.1613437719       -0.9378379210
 H          6.6101681356        1.3937357250       -0.0899010138
 O          4.2275019022        1.7248269650        0.3771791746
 C          2.8794074733        2.0382488799        0.4217921950
 O          2.6173253612        3.1005052300        1.0212653027
 H         -1.4880023355       -0.1756624967       -1.0462233396
 C         -1.2308486762       -0.3204073006       -0.0111966337
 C         -0.2564070750        0.4560368275        0.5935058983
 C          0.0649354723        0.2084138467        1.9267853854
 C         -0.5657957269       -0.7980694580        2.6304712351
 C         -1.5370756273       -1.5745755966        2.0217799244
 C         -1.8655934531       -1.3368366359        0.6929009277
 N         -2.8257282727       -2.1323540434        0.0498819386
 S         -3.9818845966       -1.4784631985       -0.9610650313
 O         -4.9315569099       -2.5511178036       -1.1583801975
 O         -3.3731974280       -0.9366570622       -2.1481067519
 C         -4.7349675942       -0.1793397402        0.0010598350
 C         -4.2458444556        1.1081582740       -0.0877938794
 C         -4.8052715947        2.0920405030        0.7125243287
 C         -5.8367232435        1.7741707036        1.5823816333
 C         -6.3189500200        0.4760486613        1.6575564377
 C         -5.7612827722       -0.5127306211        0.8638029653
 H         -6.1130670403       -1.5315065022        0.8823757535
 H         -7.1244613661        0.2327805008        2.3315381639
 H         -6.2686729289        2.5438417543        2.2023795814
 H         -4.4325352669        3.1021889931        0.6525863850
 H         -3.4469024733        1.3210224709       -0.7783034760
 H         -3.2250751944       -2.8564892328        0.6285318856
 H         -2.0256231910       -2.3680943428        2.5666102459
 H         -0.3024387579       -0.9807508833        3.6614140141
 H          0.8282995203        0.8136809608        2.3973310134
 C          0.5007521736        1.5416164017       -0.1311925926
 H          0.4460792813        2.4584993338        0.4729115856
 C         -0.0204199481        1.8446868267       -1.5193792513
 C         -1.1854968953        2.7699699152       -1.6949369214
 C          0.1911017665        3.2147461501       -2.0871063737
 H          0.4266584397        3.3070798153       -3.1367275134
 H          0.6933190605        3.9385563950       -1.4615279396
 H         -1.8983176016        2.5574644552       -2.4782644121
 H         -1.6161440954        3.2029640733       -0.8044253717
 H          0.0734595146        1.0073726391       -2.2012967691
 O          1.5921950925       -0.8205004965       -1.3979331995
