  62
        -98.94525407
 C          1.4822753875        0.7996792719       -0.5333844486
 C          2.6175543388        1.0255571402        0.2885436741
 C          3.3589802323       -0.1612292038        0.7298444540
 C          2.9152301978       -1.3794818786        0.3713478710
 C          3.5875412848       -2.6759277027        0.7177532329
 C          4.5883848378       -3.0929759722       -0.3689549144
 C          5.5479234470       -1.9773194486       -0.7831256885
 H          6.2260619163       -2.3925965586       -1.5316416884
 H          4.9789604698       -1.1818747842       -1.2696293839
 C          6.3641008562       -1.3810770062        0.3721834019
 H          6.3497730176       -2.0604851671        1.2251635452
 H          7.4037237389       -1.2833097542        0.0526873743
 C          5.9045456214        0.0066397320        0.8233872533
 H          6.6723194864        0.4216031676        1.4817868850
 H          5.8257275256        0.6665594830       -0.0441305351
 C          4.5747091606        0.0548960825        1.5867530367
 H          4.5961704013       -0.6615891626        2.4108420709
 H          4.4685604657        1.0588460267        2.0083477841
 H          4.0279911964       -3.4088427285       -1.2518300444
 H          5.1577657953       -3.9494586133       -0.0032033032
 H          4.0956900410       -2.5694271891        1.6743945254
 H          2.8187742934       -3.4452796557        0.8108337137
 O          1.8174667594       -1.5624892860       -0.3999974830
 C          1.0709634604       -0.4902384943       -0.8686023658
 O          0.1015570233       -0.8391370101       -1.5700710114
 H         -1.3547915785        0.4675000631       -0.1855515329
 C         -1.3497261131        1.4094695381        0.3364655979
 C         -0.3636621309        2.3452246812        0.0530334915
 C         -0.3662949481        3.5535387579        0.7386630936
 C         -1.3261135691        3.8117558934        1.7011382197
 C         -2.2827194215        2.8628710661        2.0085546091
 C         -2.2901793766        1.6489115378        1.3269610507
 N         -3.2565534363        0.6824269283        1.6288527241
 S         -2.9830542573       -0.9685610109        1.5215964974
 O         -3.7983295005       -1.5262676288        2.5832489465
 O         -1.5766801956       -1.2874823172        1.5691312308
 C         -3.7303837931       -1.4046617355       -0.0345534722
 C         -5.1124648161       -1.4162581984       -0.0801849414
 C         -5.7446796785       -1.7344961004       -1.2698390768
 C         -4.9876843668       -2.0349055864       -2.3929307659
 C         -3.6037469680       -2.0204285873       -2.3300960419
 C         -2.9629602638       -1.7032225979       -1.1407879294
 H         -1.8857969920       -1.6779225731       -1.0760200842
 H         -3.0085344475       -2.2511829348       -3.1993522065
 H         -5.4777673784       -2.2830486245       -3.3213168656
 H         -6.8215315614       -1.7478595895       -1.3194543559
 H         -5.6605869434       -1.1905076748        0.8194083218
 H         -3.8467659704        0.9073538144        2.4159572954
 H         -3.0178211881        3.0523389758        2.7760881567
 H         -1.3187020455        4.7531113302        2.2294186398
 H          0.4035380206        4.2816866651        0.5301508977
 C          0.7119877016        2.0379720969       -0.9631539242
 H          1.4424434699        2.8583087905       -0.9269604214
 C          0.1352638385        1.9742947834       -2.3623299379
 C         -0.1580484744        3.2553325185       -3.0823968488
 C          0.9829145559        2.3904421233       -3.5253245501
 H          0.8907895786        1.8417669751       -4.4503701405
 H          1.9885000776        2.7258454868       -3.3162687330
 H         -1.0379386507        3.3044084412       -3.7048944865
 H          0.0749848824        4.1795667364       -2.5757156104
 H         -0.5420222860        1.1447965886       -2.5139710617
 O          2.9976429240        2.1781237371        0.6317147707
