  62
        -98.94178709
 C         -2.5373957475       -0.2960902952        0.0255709630
 C         -2.2815428546       -1.3422420943       -0.8875176405
 C         -1.5887202297       -2.5283190027       -0.3551420660
 C         -1.2433209894       -2.5492448389        0.9442534236
 C         -0.4526819134       -3.6023588356        1.6710959420
 C          1.0478100582       -3.2611107646        1.6358643117
 C          1.8067030108       -3.8393997895        0.4431013353
 H          2.8288717597       -3.4566264519        0.4930653265
 H          1.8534109071       -4.9270599536        0.5377855713
 C          1.2236509921       -3.4887030082       -0.9278593874
 H          2.0107973492       -3.6287357830       -1.6721176092
 H          0.9542185634       -2.4300543197       -0.9515731157
 C          0.0169866470       -4.3575705491       -1.3128585944
 H          0.1741288065       -4.7691015231       -2.3123774904
 H         -0.0430385046       -5.2077505873       -0.6333903595
 C         -1.3316569945       -3.6280511442       -1.3501367821
 H         -1.4540121007       -3.1482610900       -2.3267083317
 H         -2.1370760944       -4.3661870340       -1.2629343580
 H          1.5149126418       -3.6347875638        2.5497805019
 H          1.1464707538       -2.1718225308        1.6346536356
 H         -0.7920917266       -3.5821741770        2.7087850163
 H         -0.6443205597       -4.5885407131        1.2583258681
 O         -1.5406073814       -1.5322440409        1.7994618661
 C         -2.1519962338       -0.3731636010        1.3638818394
 O         -2.3170404691        0.4892929507        2.2489417152
 H         -0.5241350512        0.8645587834       -0.9644850249
 C         -0.7821067110        1.8219608216       -0.5353141952
 C         -2.1102112809        2.1045028173       -0.2427893120
 C         -2.4206895430        3.3525227294        0.2801139901
 C         -1.4151164929        4.2684145453        0.5415701749
 C         -0.0881458647        3.9549981418        0.3122361081
 C          0.2296770707        2.7155730168       -0.2329428591
 N          1.5626300302        2.3454335545       -0.4900578385
 S          1.9519579096        0.7090115847       -0.2998142023
 O          1.6204647834        0.0168194582       -1.5198765247
 O          1.3760880865        0.1899998046        0.9193287733
 C          3.7251516949        0.8183647170       -0.1466913605
 C          4.4796333585        0.9813247020       -1.2932668769
 C          5.8555727388        1.0995511398       -1.1782644980
 C          6.4508382804        1.0530957051        0.0738170182
 C          5.6810670232        0.8856636035        1.2150741638
 C          4.3039498362        0.7689760092        1.1070956554
 H          3.6645964795        0.6301542882        1.9644685565
 H          6.1461350024        0.8453736338        2.1868313791
 H          7.5219280134        1.1444295498        0.1607202198
 H          6.4574937944        1.2264050607       -2.0634955507
 H          3.9722662003        1.0009809408       -2.2435920108
 H          2.2307251613        2.9427381193       -0.0217502571
 H          0.6952241005        4.6572337045        0.5537331268
 H         -1.6680380155        5.2327599978        0.9557046285
 H         -3.4458980831        3.6016412327        0.5005599826
 C         -3.1223910589        1.0099039405       -0.4834224821
 H         -3.2450107210        0.8767890566       -1.5690347900
 C         -4.4757108990        1.2863010637        0.1348283589
 C         -5.5008835318        2.0822350693       -0.6149643521
 C         -5.6836284528        0.6062250091       -0.4341078512
 H         -6.4463066308        0.2575580527        0.2457168438
 H         -5.5307045801       -0.0390093217       -1.2869925734
 H         -5.2336305571        2.4417965181       -1.5971183067
 H         -6.1438024965        2.7478533773       -0.0591275307
 H         -4.4230631895        1.3971156778        1.2120443802
 O         -2.6074584946       -1.2819604294       -2.1066497315
