  62
        -98.93810425
 C         -2.2450387524       -0.9521882828        0.3130685830
 C         -2.4107069702       -0.0329763313       -0.7488182582
 C         -3.2485530433        1.1468623945       -0.4642852122
 C         -3.7714067139        1.2977494583        0.7649290718
 C         -4.6897532420        2.3892786627        1.2406912035
 C         -6.1603112631        1.9612298266        1.0980582061
 C         -6.7875075309        2.2563591540       -0.2638742455
 H         -7.7757581417        1.7909400712       -0.2734925612
 H         -6.9323073425        3.3339597325       -0.3655797791
 C         -5.9951564018        1.7530097609       -1.4733339987
 H         -5.6200170783        0.7473156938       -1.2752140029
 H         -6.6839766482        1.6802742351       -2.3171666816
 C         -4.8319754254        2.6781960657       -1.8609282860
 H         -4.9435059916        3.6277296002       -1.3375933055
 H         -4.8906108157        2.9041291464       -2.9275755402
 C         -3.4276599258        2.1098597680       -1.6060821353
 H         -3.0929377123        1.5550768421       -2.4882169115
 H         -2.7247654190        2.9394354852       -1.4756074620
 H         -6.2189400520        0.8898396412        1.3067752970
 H         -6.7500153967        2.4744961482        1.8603388246
 H         -4.4724569716        2.5401714653        2.3002817266
 H         -4.4962457439        3.3154377978        0.7077033157
 O         -3.5584102785        0.4019660883        1.7695496988
 C         -2.7980846539       -0.7363482576        1.5736783910
 O         -2.6808944513       -1.4606341276        2.5843638534
 H          0.1053502445       -0.3253049931        1.2237938219
 C          0.6389926698       -0.8233664971        0.4223595605
 C         -0.0001753765       -1.8327268580       -0.2872512912
 C          0.7026307715       -2.4757439719       -1.2974591529
 C          1.9993631166       -2.0966344572       -1.5995218528
 C          2.6225807766       -1.0764276427       -0.9054687093
 C          1.9351807359       -0.4370161018        0.1181618153
 N          2.5535389780        0.6091631235        0.8247457049
 S          4.0980412141        0.3609837622        1.4345045298
 O          4.3317306427       -1.0330789718        1.7326953839
 O          4.2189186480        1.2843185282        2.5417672738
 C          5.1688430855        0.8943711490        0.1160083781
 C          5.0092107242        2.1769883538       -0.3706976093
 C          5.8381240574        2.6129888196       -1.3918603438
 C          6.8089503139        1.7649529154       -1.9039845343
 C          6.9589561524        0.4813838520       -1.4018789368
 C          6.1323036434        0.0386012416       -0.3808315376
 H          6.2087252685       -0.9525259234        0.0371909810
 H          7.7145627909       -0.1758689202       -1.8011247231
 H          7.4524325030        2.1070851958       -2.6990618370
 H          5.7241634423        3.6105157432       -1.7846937735
 H          4.2450615057        2.8046777877        0.0567865611
 H          1.9595511865        1.0338521462        1.5219586013
 H          3.6289810896       -0.7737526936       -1.1436662848
 H          2.5308268106       -2.6005236466       -2.3922735430
 H          0.2338695125       -3.2714457234       -1.8524974214
 C         -1.4106045630       -2.2026175304        0.1065693819
 H         -1.3662454761       -2.7033357234        1.0856515676
 C         -2.0919577792       -3.1261893781       -0.8821552962
 C         -1.9185967917       -4.6105479916       -0.7752893311
 C         -3.2269146048       -3.9803176108       -0.4059748830
 H         -4.0741353434       -4.1248535867       -1.0594223007
 H         -3.4892329236       -3.9167084133        0.6405249939
 H         -1.2949889856       -4.9854508443        0.0223396277
 H         -1.8709312240       -5.1915688998       -1.6839061798
 H         -2.1757044447       -2.6873498530       -1.8696022816
 O         -1.8899263488       -0.1883644573       -1.8836097186
