  62
        -98.94477802
 C          1.8540879265        0.4242830685       -0.6164831116
 C          2.8793072219        1.2773429586       -0.1423965976
 C          4.2476727135        0.7652136370       -0.2726838778
 C          4.4585894891       -0.4381308047       -0.8366496747
 C          5.7979344931       -1.0853921557       -1.0638795375
 C          6.3430932102       -1.8383283769        0.1575031915
 C          6.8395066736       -0.9513820336        1.3000893379
 H          7.3887524860       -1.5953788327        1.9897918180
 H          7.5448774416       -0.2177175743        0.9086122390
 C          5.7248149761       -0.2350782723        2.0751501229
 H          4.7676300382       -0.7175817153        1.8639401908
 H          5.9041987268       -0.3363036434        3.1479043548
 C          5.6035665560        1.2589451658        1.7747749172
 H          4.7629697703        1.6570223014        2.3487719038
 H          6.5091174517        1.7734890619        2.1035935693
 C          5.3646278347        1.5880379472        0.2952604234
 H          6.2794967007        1.4356752693       -0.2767996203
 H          5.0746217720        2.6388637015        0.2199635982
 H          5.5658020659       -2.5105689181        0.5283556630
 H          7.1781265946       -2.4536053958       -0.1854513415
 H          6.5201148718       -0.3325514862       -1.3811058510
 H          5.6621159008       -1.8016306998       -1.8771051001
 O          3.4460024860       -1.2203670273       -1.2973178014
 C          2.1212566593       -0.8219665322       -1.1829190549
 O          1.2984237535       -1.6492829622       -1.6191856022
 O          2.6604751586        2.4097893600        0.3649201951
 C          0.4107069808        0.8840014753       -0.5105976407
 C         -0.3860194872       -0.1031060610        0.3044666546
 C          0.1004924031       -0.4777470364        1.5556656816
 C         -0.5712724149       -1.4024196096        2.3293428559
 C         -1.7523479681       -1.9663219736        1.8781764800
 C         -2.2525696076       -1.5925714767        0.6379049450
 C         -1.5767299068       -0.6572950709       -0.1367226775
 H         -1.9828647561       -0.3990294176       -1.0999474561
 N         -3.4430857942       -2.1547448540        0.1536477558
 S         -4.5565665983       -1.1974480736       -0.6391418783
 O         -5.8069980473       -1.9139796166       -0.5061119633
 O         -4.1282563858       -0.9254076091       -1.9874400060
 C         -4.6156959947        0.3139970657        0.3072328669
 C         -4.2863217528        1.5123009281       -0.2901938437
 C         -4.3159720971        2.6714634643        0.4690795404
 C         -4.6697971411        2.6110104796        1.8076131113
 C         -5.0035295916        1.3989542626        2.3930565924
 C         -4.9774687413        0.2380226691        1.6382397004
 H         -5.2429409554       -0.7176321173        2.0599615966
 H         -5.2820343347        1.3563435130        3.4336512621
 H         -4.6875327709        3.5140615166        2.3971296207
 H         -4.0611603480        3.6151159593        0.0133120116
 H         -4.0131465529        1.5144235291       -1.3325054079
 H         -3.8900035410       -2.8062371936        0.7814119556
 H         -2.2749110152       -2.6983377430        2.4749635224
 H         -0.1754939593       -1.6879241328        3.2923213928
 H          1.0250392512       -0.0395759535        1.9062626051
 H          0.4487028867        1.8357146832        0.0402465165
 C         -0.1542395935        1.1437901345       -1.8905349135
 C         -1.2135680718        2.1836199273       -2.0919972584
 C          0.1824362987        2.4333259723       -2.5757937935
 H          0.3739540630        2.4181248971       -3.6383124580
 H          0.7952306073        3.1370075654       -2.0315278911
 H         -1.9828969871        1.9941805443       -2.8259303185
 H         -1.5503952378        2.7250519682       -1.2212226798
 H         -0.1915359676        0.2494704262       -2.5032350594
