  62
        -98.94383933
 C          1.1280888585        1.4700130992        0.4883103294
 C          2.0379673078        1.1714573691       -0.5562872049
 C          3.1654054489        0.2921541427       -0.1960778740
 C          3.2544895365       -0.1947012528        1.0546737877
 C          4.3900670265       -1.0273081420        1.5766280502
 C          4.1573312859       -2.5350341613        1.4206597966
 C          3.7519210628       -2.9649150504        0.0116485240
 H          3.6979357175       -4.0555731736        0.0100714184
 H          2.7469901397       -2.5964071138       -0.1938730566
 C          4.6938706759       -2.4972812893       -1.1051337364
 H          5.6699378589       -2.2454022157       -0.6892155705
 H          4.8435367994       -3.3254216444       -1.8009410149
 C          4.1691872026       -1.3169781150       -1.9265392102
 H          3.1402111802       -1.5130295312       -2.2369282525
 H          4.7747722362       -1.2438613136       -2.8336551883
 C          4.2166694818        0.0565153657       -1.2450999336
 H          5.2126498499        0.2225235888       -0.8275169031
 H          4.0388834886        0.8141872568       -2.0138632710
 H          5.0759359421       -3.0493081339        1.7100646981
 H          3.3678057373       -2.8392166653        2.1121206580
 H          5.3008892180       -0.7386994529        1.0538983319
 H          4.5079634992       -0.8001705606        2.6381298162
 O          2.3102173457        0.0394345985        2.0037725717
 C          1.2459572357        0.8902146351        1.7546467439
 O          0.4861265507        1.0541225372        2.7313735597
 O          1.9529988700        1.6362324612       -1.7209012273
 C          0.0042268821        2.4831173202        0.3162854285
 C         -1.1070873901        1.9337951845       -0.5456860677
 C         -1.1109837795        2.0519842653       -1.9309368195
 C         -2.1522770937        1.5272313356       -2.6748572743
 C         -3.1942814465        0.8557642248       -2.0603415534
 C         -3.1942243561        0.7205434868       -0.6778112888
 C         -2.1647781187        1.2751516869        0.0692432345
 H         -2.1859166285        1.1741485699        1.1452175525
 N         -4.2136527219        0.0041380855       -0.0187921929
 S         -3.7172558317       -1.2360567284        0.9983585892
 O         -4.8424877345       -2.1443992271        1.0485587697
 O         -3.2823121157       -0.6976378207        2.2600063019
 C         -2.3614550455       -1.9628958867        0.0997154813
 C         -2.6512969324       -2.8188633400       -0.9453544040
 C         -1.6198824386       -3.2629563319       -1.7561205696
 C         -0.3261389530       -2.8161781243       -1.5321940415
 C         -0.0546524066       -1.9550369246       -0.4814873544
 C         -1.0754208515       -1.5322776883        0.3535167107
 H         -0.8839977457       -0.8776467815        1.1890268970
 H          0.9436244029       -1.5823804139       -0.3102460898
 H          0.4759087239       -3.1384946780       -2.1776620348
 H         -1.8269071194       -3.9405466956       -2.5684860022
 H         -3.6731630611       -3.1284560044       -1.0946404164
 H         -4.9386650204       -0.3289936344       -0.6395246497
 H         -4.0005238817        0.4369330387       -2.6430844297
 H         -2.1462078458        1.6316537478       -3.7489416248
 H         -0.2840447649        2.5356288854       -2.4234802506
 H         -0.4080351807        2.6316071768        1.3240039322
 C          0.5314642212        3.8135914064       -0.1856965679
 C         -0.3126866740        5.0400699510       -0.0230791952
 C          0.9232122836        4.8648227744        0.8064557801
 H          1.7825471784        5.4821826979        0.5911853615
 H          0.8067569336        4.6317410421        1.8553399319
 H         -0.3042201735        5.7808151357       -0.8076933744
 H         -1.2694929150        4.9250966121        0.4640421113
 H          1.1373372921        3.7309273131       -1.0782834305
