  62
        -98.94794085
 C         -1.1399105951       -1.1864781642        0.4750178093
 C         -1.5397183908       -0.4790567788       -0.6841249082
 C         -2.3072733931        0.7506239023       -0.4420442151
 C         -2.4776612058        1.1965287016        0.8155401385
 C         -3.1924308651        2.4580237803        1.2178824893
 C         -4.7124443694        2.2930384654        1.3545091315
 C         -5.4695871775        2.1341390443        0.0352597855
 H         -6.5321808421        2.2407086920        0.2621270832
 H         -5.1978646575        2.9473985695       -0.6382813653
 C         -5.2465756826        0.7856108038       -0.6639483786
 H         -6.2075469357        0.3818786042       -0.9904750389
 H         -4.8265029530        0.0714686598        0.0482766397
 C         -4.3409355127        0.8509659281       -1.8939757622
 H         -4.2205972693       -0.1627338490       -2.2840725867
 H         -4.8189372038        1.4553222540       -2.6678992657
 C         -2.9433862384        1.4240697639       -1.6216353893
 H         -2.3175356095        1.2270627614       -2.4954730866
 H         -3.0090990088        2.5008071675       -1.4642350175
 H         -5.0923687930        3.1819208310        1.8634621011
 H         -4.9132017049        1.4321446284        1.9966808699
 H         -2.7878518236        2.7479793224        2.1902451743
 H         -2.9741639460        3.2508863190        0.5018508154
 O         -1.9848573219        0.5376293220        1.9001060804
 C         -1.3589373094       -0.6919585158        1.7611172523
 O         -1.0439364772       -1.2333223921        2.8410399851
 H          1.5443951653       -1.0197545912        1.2766278024
 C          1.8228557324       -1.4866824840        0.3424603987
 C          0.9175484038       -2.3230620539       -0.3013255259
 C          1.2996880201       -2.9320065837       -1.4888466615
 C          2.5563821157       -2.6979672365       -2.0199826814
 C          3.4514074633       -1.8602599268       -1.3815097519
 C          3.0822623730       -1.2525364603       -0.1856270852
 N          3.9890993944       -0.4281793810        0.5021818673
 S          3.4961176137        1.0144802755        1.1816473702
 O          4.7330846101        1.7066971348        1.4732730018
 O          2.6222867499        0.7757763952        2.3013409318
 C          2.6329427781        1.8678809230       -0.1227219504
 C          3.3850648838        2.4761117783       -1.1097326904
 C          2.7346480270        3.1131071130       -2.1530454237
 C          1.3484100782        3.1297248432       -2.1918772697
 C          0.6086144236        2.5181734047       -1.1923382991
 C          1.2541745436        1.8751510780       -0.1481280561
 H          0.7072134947        1.3864941431        0.6439315454
 H         -0.4685231841        2.5251317788       -1.2190665540
 H          0.8378881089        3.6237023972       -3.0033068005
 H          3.3065702910        3.5932923071       -2.9304974449
 H          4.4598512253        2.4552969281       -1.0304205684
 H          4.8804056025       -0.3171185151        0.0403627813
 H          4.4318917389       -1.6818063289       -1.7956832213
 H          2.8409519218       -3.1732882572       -2.9461964918
 H          0.6136978273       -3.5851532697       -2.0014540043
 C         -0.4306194261       -2.5236192965        0.3480922699
 H         -0.2544540950       -2.8687345612        1.3775114694
 C         -1.3134487159       -3.5296387229       -0.3596859266
 C         -1.1004252339       -4.9960631828       -0.1396377024
 C         -2.3023135506       -4.3172372696        0.4438530814
 H         -3.2715054922       -4.5208957878        0.0136779602
 H         -2.3270514126       -4.1443198771        1.5104269578
 H         -0.3088555432       -5.2897436618        0.5331929710
 H         -1.2467079312       -5.6700893544       -0.9699121774
 H         -1.6242612058       -3.1985537710       -1.3432981423
 O         -1.2848602205       -0.8513012041       -1.8574584379
