  62
        -98.94181316
 C         -2.7728643856       -0.4190507188       -0.2972312143
 C         -2.0395622704        0.4436182576       -1.1482085184
 C         -2.1538081349        1.8813587656       -0.8624854578
 C         -2.9536373481        2.3018531904        0.1326684548
 C         -3.1278603266        3.7313818916        0.5541240210
 C         -2.1441188511        4.1111780217        1.6692724421
 C         -0.6935537301        3.7212641173        1.3822969711
 H         -0.0891767290        4.0836131005        2.2172577234
 H         -0.5999915874        2.6319245193        1.3781300627
 C         -0.1300534414        4.2764955717        0.0670994872
 H          0.8754038423        4.6583066173        0.2558873115
 H         -0.7393230991        5.1143945557       -0.2751679694
 C         -0.0097975146        3.2395074428       -1.0514315562
 H          0.4891034320        2.3483877129       -0.6591269657
 H          0.6236669650        3.6592531578       -1.8380146947
 C         -1.3318442691        2.8149665502       -1.7052494786
 H         -1.9087853866        3.7006581769       -1.9791902828
 H         -1.0929520726        2.2634168299       -2.6191245471
 H         -2.2059103649        5.1893484084        1.8292945989
 H         -2.4542982769        3.6123266353        2.5904453062
 H         -2.9826142764        4.3785789220       -0.3085859079
 H         -4.1468823600        3.8570545649        0.9243831434
 O         -3.6795449594        1.4500656521        0.9009027373
 C         -3.5790311267        0.0813585568        0.7306753655
 O         -4.2621919833       -0.5827916222        1.5363848563
 H         -0.1472482462       -1.4738524008       -1.1439117945
 C         -0.1878124678       -2.0212929219       -0.2140249374
 C         -1.4210144771       -2.3779843650        0.3125133716
 C         -1.4499681460       -3.0603930876        1.5229657848
 C         -0.2756259237       -3.3603602496        2.1926891590
 C          0.9494944665       -2.9695826405        1.6808397139
 C          0.9849140593       -2.2906150911        0.4712252992
 N          2.2267628806       -1.8162943873       -0.0325613372
 S          2.7160622517       -0.4404982176        0.8330628132
 O          3.0703306079       -0.8611442372        2.1654525237
 O          1.7102218568        0.5955076405        0.7411950205
 C          4.1812404289        0.0303964743       -0.0655460792
 C          4.1090587681        1.0462908184       -0.9986599793
 C          5.2472663107        1.3769292903       -1.7176564495
 C          6.4288049457        0.6861263040       -1.4952010860
 C          6.4843627398       -0.3329874128       -0.5557759101
 C          5.3508484902       -0.6673711890        0.1674536121
 H          5.3467071782       -1.4457376402        0.9121304938
 H          7.4054193017       -0.8666616209       -0.3855745400
 H          7.3121759803        0.9450519189       -2.0572368437
 H          5.2063071348        2.1696239978       -2.4473264022
 H          3.1701553251        1.5596843880       -1.1355524298
 H          2.1165708337       -1.5299185506       -0.9992417371
 H          1.8677435492       -3.1540400616        2.2139113156
 H         -0.3163818053       -3.8872223844        3.1342038331
 H         -2.4042376887       -3.3289315091        1.9532801152
 C         -2.6926164143       -1.9389926911       -0.3737718718
 H         -3.5410652994       -2.3136877679        0.2139189330
 C         -2.8036573531       -2.4867224374       -1.7819355346
 C         -3.2042360754       -3.9178068860       -1.9714363380
 C         -4.1565988163       -2.8184252055       -2.3323144672
 H         -4.3493197236       -2.6212173969       -3.3760737157
 H         -5.0107393203       -2.6517017621       -1.6919722694
 H         -3.4143043867       -4.4992017803       -1.0863938363
 H         -2.7420397451       -4.4800228928       -2.7681253182
 H         -2.0796362569       -2.0695060774       -2.4684501386
 O         -1.3184604804        0.0610093279       -2.1095577017
