  62
        -98.93944434
 C         -2.6606615657       -1.2318775302       -0.0844262148
 C         -2.7333378538       -0.1143734956       -0.9502711880
 C         -4.0593322398        0.5069077477       -1.0795390567
 C         -5.1011962505       -0.0143396927       -0.4062238961
 C         -6.4895475799        0.5554405183       -0.4000007070
 C         -6.6735642410        1.5524647319        0.7528163132
 C         -5.5626283814        2.5983684025        0.8490228088
 H         -5.8137706592        3.2640349788        1.6777529168
 H         -4.6251039608        2.1016416525        1.1100173088
 C         -5.3573288505        3.4259101209       -0.4274585512
 H         -6.2376695942        3.3458191773       -1.0662237162
 H         -5.2525102387        4.4768153805       -0.1497884635
 C         -4.1112739126        3.0517620991       -1.2323811595
 H         -3.2386266703        3.0393019593       -0.5740016114
 H         -3.9443547536        3.8303065152       -1.9815500100
 C         -4.1738542057        1.7098578604       -1.9728123973
 H         -5.0854310400        1.6614208553       -2.5717627531
 H         -3.3143140700        1.6634438298       -2.6478012529
 H         -7.6358531695        2.0519847026        0.6270226421
 H         -6.7003312080        0.9947278659        1.6918556104
 H         -6.6799990257        1.0459344192       -1.3524602680
 H         -7.1980355881       -0.2651256219       -0.2752843625
 O         -4.9956325666       -1.1044435521        0.3967991727
 C         -3.7747682681       -1.7291556673        0.5906331535
 O         -3.8100729950       -2.6999427066        1.3742855400
 H          1.2267537847       -1.3218456223       -0.7223634674
 C          0.9279417315       -0.7462788568        0.1401618968
 C         -0.3301102160       -0.9305347683        0.6896046985
 C         -0.6811099101       -0.1790590063        1.8082232904
 C          0.1961016946        0.7429250681        2.3448570200
 C          1.4443497069        0.9395596357        1.7795685379
 C          1.8103815564        0.1871634553        0.6728089365
 N          3.0720933535        0.3872121667        0.0735757382
 S          4.4401905300        0.2539816179        1.0563342681
 O          4.5250657516       -1.0795815012        1.6137670367
 O          4.4397638381        1.3356195261        2.0069116031
 C          5.7286652761        0.5036125556       -0.1484407434
 C          6.3690151506       -0.5895348193       -0.6997349354
 C          7.3504512583       -0.3793093145       -1.6557207551
 C          7.6702928915        0.9129232358       -2.0438404839
 C          7.0184322112        2.0002345351       -1.4809401265
 C          6.0371121095        1.7970049675       -0.5240488722
 H          5.5102382183        2.6108645046       -0.0541761833
 H          7.2715788624        3.0033948189       -1.7840733243
 H          8.4343189364        1.0737021193       -2.7880271210
 H          7.8610124228       -1.2221632961       -2.0931835947
 H          6.0954708943       -1.5762011008       -0.3615228563
 H          3.1913595151       -0.2130742957       -0.7327118930
 H          2.1375770271        1.6542650641        2.1912082728
 H         -0.0940807743        1.3199551995        3.2104980887
 H         -1.6576086156       -0.3284752816        2.2503447643
 C         -1.3284397695       -1.9231822838        0.1437401838
 H         -1.5077396405       -2.6828357427        0.9187941940
 C         -0.8765093206       -2.6186197867       -1.1231910683
 C          0.0251334578       -3.8132585223       -1.0468838872
 C         -1.4141630778       -3.9830789554       -1.4281641709
 H         -1.6520061651       -4.2266765874       -2.4527066795
 H         -2.0890979096       -4.4215903991       -0.7074700090
 H          0.7743326839       -3.9457528660       -1.8130887850
 H          0.3336520283       -4.1452339410       -0.0668050989
 H         -0.7535928556       -1.9327773714       -1.9536254717
 O         -1.7453615067        0.3413047685       -1.5828092231
