  62
        -98.94116816
 C          2.4727669521        1.3675334027       -0.0409799175
 C          3.2787157785        0.7674667443        0.9624355085
 C          4.2004563705       -0.2833947573        0.5202018492
 C          4.2470928651       -0.6220688110       -0.7805736718
 C          5.1565701864       -1.6488681648       -1.3990588365
 C          4.6405771180       -3.0903127660       -1.2917218610
 C          4.7136802058       -3.7047886938        0.1066419310
 H          4.5336706908       -4.7758964412       -0.0043316059
 H          5.7219727006       -3.5830662379        0.5035534734
 C          3.6938663458       -3.1347500508        1.1026763153
 H          3.2146766122       -3.9542899117        1.6432598313
 H          2.9035824709       -2.6111298253        0.5585650813
 C          4.2871914156       -2.1886678634        2.1468212146
 H          3.4713384758       -1.8142436268        2.7704679889
 H          4.9776279174       -2.7396401514        2.7892411541
 C          5.0272270324       -0.9809642086        1.5575913785
 H          5.2168854303       -0.2686328788        2.3641828288
 H          5.9814586793       -1.2944532659        1.1345658670
 H          3.6082621432       -3.1209350340       -1.6487883271
 H          5.2433771653       -3.7026605651       -1.9663928771
 H          6.1455444513       -1.5813149972       -0.9447093264
 H          5.2409363610       -1.3915356387       -2.4571358620
 O          3.4596206609       -0.0277104463       -1.7136458663
 C          2.5446967647        0.9633460967       -1.3742933691
 O          1.8864289491        1.3791118137       -2.3472075757
 O          3.2394734423        1.1108561251        2.1738878183
 C          1.5370716825        2.4748960521        0.4142649202
 C          0.1503958636        1.9472339657        0.6797487776
 C         -0.4704215949        2.1487082320        1.9067139837
 C         -1.7400920253        1.6505565479        2.1434432601
 C         -2.4169400589        0.9474552204        1.1630338069
 C         -1.8017447373        0.7327116787       -0.0635428219
 C         -0.5280036871        1.2303632356       -0.2968699044
 H         -0.0529263477        1.0604416052       -1.2522452548
 N         -2.4827466461        0.0283376350       -1.0731613287
 S         -3.1270726228       -1.4718822912       -0.6776102727
 O         -2.3863438190       -2.0991403950        0.3931887755
 O         -3.1966494483       -2.2001957735       -1.9255645540
 C         -4.7798850058       -1.0871022480       -0.1379020419
 C         -5.2143766749       -1.4999484727        1.1063511983
 C         -6.5065142123       -1.1895428443        1.5015800063
 C         -7.3363507822       -0.4764687713        0.6500508409
 C         -6.8855666423       -0.0719664796       -0.5978257978
 C         -5.5957503675       -0.3801828824       -0.9995738735
 H         -5.2074995820       -0.0880420373       -1.9610154518
 H         -7.5336320596        0.4823513987       -1.2574193812
 H         -8.3405177387       -0.2346118162        0.9605676817
 H         -6.8588918695       -1.5038634987        2.4708384585
 H         -4.5312090076       -2.0466049296        1.7368693359
 H         -1.9617141420       -0.0270609126       -1.9371710024
 H         -3.4060126356        0.5580881194        1.3407585498
 H         -2.2092040680        1.8128267965        3.1017445619
 H          0.0558961819        2.6858258561        2.6821323203
 H          1.9535211419        2.8020978585        1.3801508350
 C          1.5509461937        3.6824062240       -0.5145549871
 C          0.3871576551        4.1068896460       -1.3543940438
 C          0.7718571196        4.9124012580       -0.1522549699
 H          1.2307677694        5.8785020751       -0.2968945819
 H          0.1285437799        4.8512279243        0.7126196611
 H          0.6004396556        4.4993044767       -2.3370816862
 H         -0.5193893845        3.5246976400       -1.3086434933
 H          2.5332281195        3.8404692273       -0.9491342383
