  62
        -98.94531682
 C         -1.9246923796       -0.4623433697        0.4968442568
 C         -1.6936869318        0.7336796053        1.2216957641
 C         -1.9249308418        1.9918815725        0.4995892191
 C         -2.2862132947        1.9461565795       -0.7952621740
 C         -2.5313749977        3.1475054069       -1.6613870630
 C         -1.2553304313        3.5793623755       -2.3956800899
 C         -0.0366044177        3.7209709594       -1.4837628639
 H          0.2478973461        2.7293902950       -1.1221787823
 H          0.7919600259        4.0734114811       -2.1029175582
 C         -0.2376166879        4.6791003262       -0.3009628365
 H          0.6468945994        5.3138160361       -0.2146653777
 H         -1.0880262606        5.3331241836       -0.4983271111
 C         -0.4257999166        3.9947249225        1.0538184949
 H         -0.3413049851        4.7576800254        1.8324423285
 H          0.3834320255        3.2782785329        1.2091034565
 C         -1.7636111845        3.2751708072        1.2669818121
 H         -1.8265420015        2.9999752596        2.3241279497
 H         -2.5853733694        3.9583714197        1.0410139647
 H         -1.4507268218        4.5286957215       -2.8988285554
 H         -1.0210364296        2.8303368798       -3.1560864891
 H         -2.9015349963        3.9640493518       -1.0436886377
 H         -3.2927560304        2.8874321568       -2.3991497407
 O         -2.4427364474        0.7845186925       -1.4758077559
 C         -2.2410080312       -0.4456570650       -0.8634235845
 O         -2.3912226179       -1.4154819059       -1.6297809936
 O         -1.3125933357        0.7500465106        2.4233985553
 C         -1.6696517062       -1.7812768512        1.2101580117
 C         -0.7306693750       -2.6061056572        0.3674108691
 C         -1.0175550627       -3.8654301845       -0.1387331608
 C         -0.1130351398       -4.4981275540       -0.9751271199
 C          1.0709192386       -3.8848664469       -1.3412049800
 C          1.3700231202       -2.6257897913       -0.8308193069
 C          0.4882745687       -2.0221323214        0.0467021186
 H          0.7187427689       -1.0473126122        0.4460761786
 N          2.5550871657       -1.9599415072       -1.1743786723
 S          2.6089902497       -0.2867769790       -1.2425336640
 O          1.3382761478        0.2964652309       -1.6020425558
 O          3.7151766413       -0.0068068386       -2.1346855153
 C          3.0789856015        0.1790305713        0.4104414492
 C          2.2129268670        0.9093894858        1.1976749310
 C          2.5914269359        1.2437382082        2.4880837401
 C          3.8308709949        0.8466533959        2.9650780785
 C          4.6957930189        0.1201852173        2.1598051040
 C          4.3188880107       -0.2194927197        0.8707370171
 H          4.9619665911       -0.7778135207        0.2112026659
 H          5.6595206784       -0.1845107737        2.5347246500
 H          4.1217133799        1.1061349682        3.9707264313
 H          1.9078599789        1.7996622661        3.1104607320
 H          1.2510973041        1.1948747305        0.7972289705
 H          3.0909878405       -2.3894855209       -1.9136708156
 H          1.7535752850       -4.3667659998       -2.0245828071
 H         -0.3473246243       -5.4747767913       -1.3713191471
 H         -1.9591045012       -4.3367247825        0.0908463335
 H         -1.1346907206       -1.4908114079        2.1303273914
 C         -2.9176628795       -2.5260318817        1.6547400956
 C         -4.1851978251       -1.7876239936        1.9625637489
 C         -4.1179224182       -2.6980698538        0.7749522365
 H         -4.6527948659       -3.6356810752        0.8200006518
 H         -4.0832517257       -2.2625521664       -0.2108592478
 H         -4.7662350089       -2.0964889742        2.8184993712
 H         -4.1961044934       -0.7214838328        1.7868347423
 H         -2.6764269451       -3.3567278986        2.3110835390
