  62
        -98.93859275
 C         -2.8318811602       -0.1893570779       -0.2048142897
 C         -2.1433465498        0.6034670016       -1.1555483198
 C         -2.0430271890        2.0379835916       -0.8456658500
 C         -2.6139781888        2.5202697821        0.2712787599
 C         -2.5668813480        3.9531805421        0.7146723096
 C         -1.3862992079        4.2179314616        1.6583477096
 C         -0.0435343982        3.6953046208        1.1464546298
 H         -0.0494689488        2.6020767708        1.1450323799
 H          0.7173741420        4.0009671705        1.8687343597
 C          0.3501670321        4.1969282504       -0.2497259803
 H          1.4063919623        4.4738486198       -0.2309483503
 H         -0.2177329174        5.0947207207       -0.4981260105
 C          0.1795362716        3.1576555503       -1.3598173301
 H          0.6157926211        2.2109034001       -1.0289879900
 H          0.7364431418        3.4977714599       -2.2373628902
 C         -1.2649545485        2.8928253510       -1.8055473002
 H         -1.2303322488        2.3339356408       -2.7453118301
 H         -1.7764777380        3.8402557312       -1.9872240703
 H         -1.5939923782        3.7377840019        2.6175656997
 H         -1.3175368173        5.2948986116        1.8254667295
 H         -2.4952684276        4.5947459319       -0.1615942205
 H         -3.4960194479        4.1767992727        1.2422863496
 O         -3.2924395792        1.7355979626        1.1477926400
 C         -3.3831674300        0.3694161126        0.9518993002
 O         -3.9914237503       -0.2365921769        1.8576362803
 H         -0.4278834008       -1.3034167893       -1.1098861194
 C         -0.4720379112       -1.9597872292       -0.2531725393
 C         -1.7104055514       -2.3163173184        0.2641064907
 C         -1.7476937119       -3.1598971682        1.3670050108
 C         -0.5743188621       -3.6161479988        1.9455467209
 C          0.6574002681       -3.2287069995        1.4473316509
 C          0.7002041786       -2.3946056697        0.3391988408
 N          1.9558948889       -1.9240499405       -0.1399951793
 S          2.4438130395       -0.6051715006        0.8127591806
 O          2.7072076392       -1.0994718405        2.1409280706
 O          1.4793822801        0.4683901199        0.7120694003
 C          3.9731496498       -0.1457543815        0.0210980905
 C          4.0171473204        0.9734657683       -0.7868225197
 C          5.2068095206        1.2937190576       -1.4225741997
 C          6.3229307702        0.4908918170       -1.2432998495
 C          6.2620534696       -0.6307491528       -0.4292409593
 C          5.0767396994       -0.9554674421        0.2103329707
 H          4.9826905289       -1.8115364019        0.8572652808
 H          7.1326431292       -1.2515066433       -0.2917716392
 H          7.2465014703        0.7421023864       -1.7405188995
 H          5.2563186411        2.1659372475       -2.0543422598
 H          3.1258565408        1.5714670088       -0.8944670898
 H          1.8521242791       -1.5735089706       -1.0861837393
 H          1.5774845879       -3.5384534799        1.9150032010
 H         -0.6205591825       -4.2651165586        2.8070317510
 H         -2.7036240820       -3.4331979176        1.7901570808
 C         -2.9588414010       -1.7034999678       -0.3170076895
 H         -3.8020360912       -1.9727139273        0.3373745306
 C         -3.2902371412       -2.1788946579       -1.7251708694
 C         -2.4196853317       -3.1147991785       -2.5054371992
 C         -3.7187235620       -3.6004141977       -1.9420424992
 H         -4.5387967321       -3.7980882774       -2.6153792192
 H         -3.6758211324       -4.2630588176       -1.0905270791
 H         -1.5068714619       -3.4664569189       -2.0504212391
 H         -2.3418274016       -2.9528260187       -3.5697661092
 H         -3.8131895908       -1.4224309977       -2.2998414195
 O         -1.6327627100        0.1588486311       -2.2177840597
