  62
        -98.93538258
 C          2.1375372530        1.3751596393        0.3047691364
 C          1.7687182220        0.3552665022       -0.6029598061
 C          2.5720962979       -0.8879408408       -0.5694702778
 C          3.5838070075       -0.9902402778        0.3111412320
 C          4.5157552975       -2.1512121513        0.5393620933
 C          3.8565551746       -3.3015133475        1.3162059145
 C          2.4533736195       -3.6725668512        0.8437361578
 H          1.8057059776       -2.7973202556        0.9246832194
 H          2.0604679806       -4.4281974009        1.5294266291
 C          2.3726364760       -4.2379366981       -0.5725063960
 H          1.3401413166       -4.5591170178       -0.7333826784
 H          3.0087545500       -5.1230621052       -0.6405579588
 C          2.7514028647       -3.2745117377       -1.7001671207
 H          2.3966635396       -3.7157205528       -2.6360179746
 H          3.8298802266       -3.1802794120       -1.7940939453
 C          2.1089405540       -1.8954478107       -1.5942581602
 H          1.0321516612       -2.0171030421       -1.4302641641
 H          2.2001326457       -1.3904857898       -2.5631930985
 H          3.7882096571       -3.0061508331        2.3663552818
 H          4.5067012390       -4.1758786018        1.2548700101
 H          4.9141014455       -2.5034716671       -0.4074835216
 H          5.3514801862       -1.7686464450        1.1297551451
 O          3.8803038682        0.0086732187        1.1927169581
 C          3.1703015400        1.1931090348        1.2262286809
 O          3.5401684399        1.9905881286        2.1117646592
 H          0.0136278409        0.9556845011        1.8283167159
 C         -0.6452458008        1.5059363721        1.1666650289
 C         -0.1030251990        2.4586245577        0.3123640412
 C         -0.9609135540        3.1468812739       -0.5354672773
 C         -2.3218065061        2.8924624006       -0.5158889086
 C         -2.8559092634        1.9401419194        0.3315212648
 C         -2.0029191856        1.2288959842        1.1667011415
 N         -2.5220781646        0.2280844997        2.0027628111
 S         -3.7442357706       -0.7557395818        1.4256193751
 O         -5.0169158259       -0.1102933274        1.6390338796
 O         -3.5628333135       -2.0163700406        2.1132692586
 C         -3.4750232982       -0.9605523126       -0.3274885600
 C         -2.2211292440       -1.3134530599       -0.7840983182
 C         -2.0253009376       -1.4721991225       -2.1459617474
 C         -3.0822775402       -1.2869987199       -3.0232750436
 C         -4.3385027845       -0.9434032678       -2.5490507601
 C         -4.5380049094       -0.7743707617       -1.1886623286
 H         -5.4938778245       -0.4947171591       -0.7758773510
 H         -5.1592929728       -0.8005685861       -3.2333297156
 H         -2.9217643635       -1.4092660486       -4.0827461271
 H         -1.0431865501       -1.7179390956       -2.5160711734
 H         -1.4090971404       -1.4447189063       -0.0861495890
 H         -1.8223775425       -0.3043811717        2.4974411217
 H         -3.9140434384        1.7353399990        0.3604134641
 H         -2.9762822939        3.4398834133       -1.1766509563
 H         -0.5656640476        3.8733052145       -1.2255712458
 C          1.3877450091        2.6939674557        0.3732885965
 H          1.6169946407        3.0967244333        1.3746124637
 C          1.8738025907        3.7306996144       -0.6302142037
 C          3.2471189547        3.6536744185       -1.2261281887
 C          2.0439691785        3.4058499201       -2.0828391120
 H          1.7731499280        4.1548381651       -2.8124553629
 H          1.8302867252        2.3951052192       -2.3915589163
 H          3.8684605640        2.8124129762       -0.9544407232
 H          3.7969716335        4.5734374984       -1.3595026915
 H          1.5170364503        4.7273241880       -0.3898147160
 O          0.8100261316        0.4501689759       -1.4104017139
