  62
        -98.93893691
 C          1.2887484702        1.2768240722       -0.2215563727
 C          2.4289739197        1.3420773425        0.6172771987
 C          3.2614985974        0.1324213889        0.6803339297
 C          2.8856052597       -0.9554634737       -0.0166742232
 C          3.6641061343       -2.2368692397       -0.1125331583
 C          4.8455276298       -2.0625941441       -1.0882958336
 C          6.2237675492       -2.1695428117       -0.4355650898
 H          6.4376848554       -3.2197753153       -0.2260860894
 H          6.9590716851       -1.8235246358       -1.1652161405
 C          6.4079957699       -1.3855459553        0.8674708095
 H          7.4818720442       -1.3376557163        1.0605311421
 H          5.9685559518       -1.9420821108        1.6966628817
 C          5.8419949314        0.0403667721        0.8789353795
 H          6.5401423057        0.6778977164        1.4253545180
 H          5.7776896009        0.4373130014       -0.1344355200
 C          4.4727682070        0.1808141855        1.5701622000
 H          4.3813321840       -0.5751983779        2.3550236634
 H          4.4254933231        1.1612380644        2.0533838407
 H          4.7474552259       -1.0901633548       -1.5751961780
 H          4.7822219336       -2.8152292397       -1.8755736553
 H          4.0219242417       -2.5254624935        0.8732535925
 H          2.9842477797       -3.0063363384       -0.4772822537
 O          1.7726977891       -0.9875979707       -0.7919029575
 C          0.9440430187        0.1173017902       -0.9173140495
 O         -0.0332196587       -0.0656449447       -1.6660586247
 H         -1.9692227161        1.5355781097       -1.3207770118
 C         -1.9903888370        1.6290043717       -0.2469193052
 C         -0.8914249078        2.1430488981        0.4242541159
 C         -0.9395433259        2.2300151334        1.8128194059
 C         -2.0577857543        1.8115642045        2.5097176333
 C         -3.1457382748        1.2804383902        1.8379529721
 C         -3.1008115654        1.1795857190        0.4541444276
 N         -4.1887778273        0.6007661538       -0.2365625494
 S         -4.5079765504       -1.0074363623        0.1097087077
 O         -5.4425537306       -1.4398976299       -0.9046865944
 O         -4.9632811900       -1.1052716599        1.4740478341
 C         -2.9586401335       -1.8706672592       -0.0771134000
 C         -2.6742796019       -2.4692397453       -1.2872554994
 C         -1.4593549249       -3.1132907189       -1.4480824913
 C         -0.5492433975       -3.1369920512       -0.4041494309
 C         -0.8445985794       -2.5217260947        0.8015623680
 C         -2.0612065736       -1.8818999677        0.9714244032
 H         -2.3252216882       -1.3973762035        1.8976078997
 H         -0.1269235173       -2.5295798149        1.6072948733
 H          0.4013875975       -3.6296491738       -0.5339331808
 H         -1.2202544814       -3.5837171218       -2.3883137604
 H         -3.4102455213       -2.4274186504       -2.0743989000
 H         -4.1070106737        0.7020782072       -1.2391998203
 H         -4.0145427991        0.9203840573        2.3648159054
 H         -2.0819802907        1.8913797164        3.5861378218
 H         -0.0787419349        2.6159809702        2.3407822198
 C          0.3857322935        2.4983514656       -0.2934299679
 H          0.9006204127        3.2781732878        0.2828611689
 C          0.1841010092        2.9902118211       -1.7105364586
 C         -0.4023395595        4.3510539029       -1.9353439462
 C          1.0453298915        4.1005867758       -2.2299264074
 H          1.3638759871        4.0654558178       -3.2610375219
 H          1.7830201006        4.5173758896       -1.5600133688
 H         -1.0794479361        4.4919038100       -2.7639665598
 H         -0.6485798047        4.9366910426       -1.0625306769
 H         -0.0771875441        2.2039427392       -2.4078532998
 O          2.7358087665        2.3672919498        1.2830090742
