  62
        -98.93970908
 C         -2.5880629511       -1.2000830056        0.2998441419
 C         -2.4854568183       -0.3592306509       -0.8327484514
 C         -3.1844837279        0.9360007922       -0.7526053180
 C         -3.8868255316        1.2445213019        0.3538180204
 C         -4.7254404851        2.4603446677        0.6886294925
 C         -4.5555866829        3.7626883313       -0.0902810236
 C         -3.1942282454        4.4383637511        0.0722766718
 H         -3.1616933393        5.3033034274       -0.5936446112
 H         -3.1057149391        4.8049725857        1.0980808936
 C         -1.9794638141        3.5552328425       -0.2060842481
 H         -1.0797156616        4.1622674160       -0.0687332970
 H         -1.9325995516        2.7513492456        0.5324001530
 C         -1.9157115083        2.9456838190       -1.6059872524
 H         -0.9294453836        2.4833150523       -1.7154287573
 H         -1.9968426513        3.7366050691       -2.3541809841
 C         -2.9727470002        1.8679228624       -1.9095610797
 H         -3.9126622121        2.3118066491       -2.2283786696
 H         -2.5994270929        1.2546644310       -2.7348048488
 H         -5.3125712226        4.4528720483        0.2918064480
 H         -4.7751491699        3.6050251305       -1.1419452070
 H         -4.5524411361        2.6547047793        1.7517441157
 H         -5.7690881889        2.1392906533        0.5988753443
 O         -3.9817355536        0.3833080305        1.4097257734
 C         -3.3190114505       -0.8326280326        1.4260340372
 O         -3.4526307778       -1.4782579867        2.4857479481
 O         -1.8393804968       -0.6711135997       -1.8664968744
 C         -1.8436457777       -2.5223368503        0.3251406528
 C         -0.3757836740       -2.2826387787        0.0621326081
 C          0.3841963664       -3.0611536283       -0.8004786988
 C          1.7192653917       -2.7664329345       -1.0179606274
 C          2.3258382502       -1.6995345028       -0.3813818762
 C          1.5776664805       -0.9201005443        0.4912808264
 C          0.2441658724       -1.2235428527        0.7137945682
 H         -0.3375758807       -0.6101933494        1.3926546062
 N          2.1855014608        0.1629749681        1.1541632077
 S          2.9801979511        1.3049047997        0.2090999565
 O          2.9597998892        2.5205802073        0.9943625305
 O          2.4188599354        1.3870005273       -1.1188241244
 C          4.6501452817        0.6911406644        0.1353638142
 C          5.2475527915        0.4608550837       -1.0882519719
 C          6.5482638012       -0.0181313447       -1.1189955651
 C          7.2243586273       -0.2564861727        0.0677506357
 C          6.6110816654       -0.0165652111        1.2885638429
 C          5.3118131878        0.4635630896        1.3262484138
 H          4.7998227486        0.6661283520        2.2520792418
 H          7.1399332725       -0.2031781177        2.2093129504
 H          8.2352576789       -0.6315476724        0.0410596925
 H          7.0267236461       -0.2042011031       -2.0670948027
 H          4.6796940565        0.6543153856       -1.9844894621
 H          1.5699232685        0.6265386216        1.8073246230
 H          3.3616597138       -1.4601073243       -0.5581251554
 H          2.2950153172       -3.3749027474       -1.6985365913
 H         -0.0721717874       -3.8911756343       -1.3142524420
 H         -1.9523071103       -2.9160341365        1.3466360569
 C         -2.4793070523       -3.4975183019       -0.6439492477
 C         -2.4419018402       -4.9702827550       -0.3707421340
 C         -3.7275906122       -4.2140889484       -0.2282131724
 H         -4.5036142219       -4.3671180162       -0.9630349724
 H         -4.1016688852       -4.0170092929        0.7661914494
 H         -2.3384612952       -5.6471580685       -1.2053664324
 H         -1.9469069424       -5.2995571257        0.5302593539
 H         -2.4130819223       -3.1615540913       -1.6724688865
