  62
        -98.94569767
 C          0.9990197010        1.1414102901       -0.2411320486
 C          2.0632352007        1.2254316695        0.6953898117
 C          2.9440365206        0.0574622794        0.7871637212
 C          2.7037886907       -1.0169053401        0.0145509605
 C          3.5041940706       -2.2909796802       -0.0038149800
 C          4.7570949909       -2.2286216698       -0.8886884397
 C          5.9061772608       -1.3846400202       -0.3358399489
 H          6.1267669805       -1.6962601908        0.6855336110
 H          6.7871893009       -1.6072916999       -0.9412202788
 C          5.6540545209        0.1291522299       -0.3712502281
 H          6.5377585810        0.6366279800       -0.7649357176
 H          4.8304136711        0.3456324703       -1.0555718981
 C          5.3424076906        0.7518438191        0.9896444922
 H          6.2131423804        0.6601055386        1.6427401124
 H          5.1435239107        1.8163382792        0.8417038028
 C          4.1296887504        0.1375316088        1.7009132316
 H          3.8607903602        0.7843496683        2.5393860519
 H          4.3809790802       -0.8501380615        2.0862484810
 H          5.1171329208       -3.2521872197       -1.0160676002
 H          4.4707967611       -1.8525145692       -1.8735677195
 H          3.7903302204       -2.5592146008        1.0134049799
 H          2.8457343707       -3.0655007699       -0.4006607106
 O          1.6641240609       -1.0687385496       -0.8564486998
 C          0.7923165611       -0.0000563194       -1.0163036394
 O         -0.0914968487       -0.2101166788       -1.8696325497
 O          2.2690478806        2.2364704791        1.4181864823
 C          0.0882850611        2.3543032103       -0.3429607282
 C         -1.1529907891        2.1383795699        0.4886212714
 C         -1.3324506494        2.8440136992        1.6734936718
 C         -2.4536449296        2.6344406488        2.4558377514
 C         -3.4091874596        1.7097212091        2.0770584606
 C         -3.2354531993        0.9936941398        0.8964405002
 C         -2.1169465291        1.2151921102        0.1056448506
 H         -1.9942222189        0.6515438307       -0.8055201997
 N         -4.1877833493        0.0464684901        0.5034872794
 S         -3.8292638892       -1.2279046193       -0.5051484012
 O         -3.7265738388       -0.7744766686       -1.8686431309
 O         -4.8985417393       -2.1743804094       -0.2503077920
 C         -2.2971089694       -1.9566981198        0.0490556587
 C         -1.5488994592       -2.6530151193       -0.8773225715
 C         -0.4032595993       -3.3106835496       -0.4602321916
 C         -0.0210665097       -3.2534833504        0.8701725285
 C         -0.7782520098       -2.5431512109        1.7876374588
 C         -1.9331456097       -1.8956113406        1.3790460589
 H         -2.5352158398       -1.3437163509        2.0824657590
 H         -0.4730749801       -2.4910243815        2.8206096089
 H          0.8738371602       -3.7609715707        1.1949103285
 H          0.1896089108       -3.8536727893       -1.1789922117
 H         -1.8663387189       -2.6528120187       -1.9075062616
 H         -4.8920627795       -0.1850003902        1.1874531591
 H         -4.2835488697        1.5386296288        2.6861265803
 H         -2.5820074298        3.1905558483        3.3718468917
 H         -0.5756561294        3.5488590690        1.9846213124
 H          0.6563964510        3.1751916600        0.1162206625
 C         -0.2534611985        2.7507369811       -1.7644484180
 C         -0.6710627884        4.1632446613       -2.0397022673
 C          0.6651368417        3.6715337215       -2.5077126373
 H          0.8160086820        3.5055867221       -3.5638942573
 H          1.5467025116        4.0228336911       -1.9911628268
 H         -1.4424226582        4.3369739118       -2.7742610974
 H         -0.6938056185        4.8498278308       -1.2068459169
 H         -0.7335059685        1.9652166815       -2.3334817886
