  62
        -98.93286317
 C         -2.3998882742       -1.2082660484        0.0099598114
 C         -2.5662614009        0.0229554325       -0.6672879685
 C         -3.9496470576        0.5134549784       -0.7807478024
 C         -4.9514370821       -0.2203232620       -0.2627372223
 C         -6.3983480867        0.1826578409       -0.2254265734
 C         -6.6268393228        1.2178092587        0.8947298884
 C         -7.0443606744        2.6020591841        0.3981061786
 H         -6.9661314445        3.2896102536        1.2429196437
 H         -8.0931216096        2.5691691599        0.0957186426
 C         -6.2356813198        3.1614193620       -0.7763329138
 H         -6.4621944687        4.2278939687       -0.8389242838
 H         -6.5844370732        2.7143574703       -1.7083790896
 C         -4.7140752467        2.9861721492       -0.6879325073
 H         -4.3969551565        2.8805299457        0.3497663260
 H         -4.2445085203        3.8939392597       -1.0722306465
 C         -4.1551117715        1.8112065279       -1.5121213162
 H         -3.1603669859        2.0833910160       -1.8776547194
 H         -4.7911566551        1.6418931194       -2.3854377696
 H         -5.7061950196        1.3011242320        1.4761161822
 H         -7.3963777924        0.8524390516        1.5763715438
 H         -6.6910602910        0.5908934912       -1.1901159690
 H         -6.9815630812       -0.7184090048       -0.0351992209
 O         -4.7496411885       -1.4043167548        0.3732847866
 C         -3.4763119792       -1.9249752297        0.5307367216
 O         -3.4346451364       -3.0101997667        1.1451214793
 H          1.4979328846       -0.8309943229       -0.5018287974
 C          1.1217014256       -0.4314758533        0.4246480920
 C         -0.1216090518       -0.8078178078        0.9051871863
 C         -0.5640370655       -0.2646721678        2.1093936386
 C          0.2152807108        0.6376603499        2.8059874888
 C          1.4580586137        1.0096433948        2.3237499096
 C          1.9088381031        0.4744361730        1.1233929271
 N          3.1515265389        0.8582323381        0.5949867851
 S          4.0539613842       -0.2630055826       -0.2841781012
 O          3.5632036872       -0.3105601266       -1.6382026313
 O          4.1053107011       -1.5234294185        0.4224876095
 C          5.6518304707        0.5289740018       -0.2547454531
 C          6.6130586151        0.0949486284        0.6382567575
 C          7.8403420224        0.7387432106        0.6676508126
 C          8.0827596783        1.8018383247       -0.1890542292
 C          7.1082621718        2.2257827943       -1.0806766842
 C          5.8799249984        1.5854587888       -1.1166111152
 H          5.0960874272        1.8735173945       -1.7977877420
 H          7.3014486194        3.0508296872       -1.7471871745
 H          9.0381880314        2.3016603512       -0.1641538111
 H          8.6012210404        0.4092488262        1.3567198308
 H          6.3818389926       -0.7401059935        1.2798206581
 H          3.7243761427        1.3613288442        1.2586041584
 H          2.0679135629        1.7150812162        2.8673864476
 H         -0.1435842149        1.0512727398        3.7366518079
 H         -1.5334734647       -0.5610282008        2.4881183350
 C         -1.0101275971       -1.7931289395        0.1853665603
 H         -1.1294828120       -2.6764615099        0.8306295932
 C         -0.4575463188       -2.2417845815       -1.1509335621
 C          0.5712039150       -3.3291613751       -1.2120707423
 C         -0.8279879962       -3.5935422134       -1.6792073384
 H         -1.0068909493       -3.7020316531       -2.7383583051
 H         -1.4665565560       -4.2085540947       -1.0616492773
 H          0.8900801973       -3.7680471243       -0.2783304850
 H          1.3592640070       -3.2505741249       -1.9464818983
 H         -0.3805671040       -1.4294014952       -1.8653170128
 O         -1.6102003845        0.6819310327       -1.1541545729
