  62
        -98.94290855
 C         -2.6509561957       -1.1864453740        0.2552770522
 C         -2.7768699654       -0.3359768285       -0.8697568819
 C         -3.7703604159        0.7429277196       -0.7537504102
 C         -4.5004718938        0.8595990843        0.3694533987
 C         -5.4953637966        1.9494488063        0.6410732074
 C         -4.8332264656        3.1414478142        1.3466510113
 C         -3.5432879076        3.6175319799        0.6783889704
 H         -2.7849598668        2.8361397300        0.7686630096
 H         -3.1838680985        4.4800365740        1.2437351196
 C         -3.6986946011        4.0041316545       -0.7991087843
 H         -3.1716378704        4.9447148513       -0.9724316298
 H         -4.7509112767        4.1756819553       -1.0287960520
 C         -3.1254548703        2.9848008466       -1.7854328685
 H         -2.0981994022        2.7397259410       -1.5030048039
 H         -3.0903751183        3.4505639759       -2.7740537024
 C         -3.9129614435        1.6756579444       -1.9239327699
 H         -3.5135556419        1.1373796964       -2.7885314166
 H         -4.9648599853        1.8970246261       -2.1146089627
 H         -4.5987193085        2.8493193883        2.3728104011
 H         -5.5510479342        3.9628943553        1.3826087816
 H         -5.9407583633        2.2710303608       -0.2983134835
 H         -6.2788197384        1.5467649434        1.2851723104
 O         -4.3737853403        0.0097299565        1.4190869345
 C         -3.4491351048       -1.0178897563        1.3929823347
 O         -3.4349240401       -1.7147201468        2.4270178857
 H         -0.0879364470       -0.7128831698       -1.1559091265
 C          0.4045789807       -1.0252334667       -0.2468856647
 C         -0.2675752191       -1.8572861197        0.6368930511
 C          0.3781587837       -2.2454175246        1.8049846017
 C          1.6618812423       -1.8069526708        2.0785962584
 C          2.3245371899       -0.9693189191        1.1992752162
 C          1.6879950012       -0.5749433655        0.0296761932
 N          2.3341550150        0.3007882041       -0.8583893097
 S          3.9207484505       -0.0143113666       -1.2989691602
 O          4.1034428256        0.6579887486       -2.5666391777
 O          4.2087050864       -1.4298985857       -1.2759038870
 C          4.8822725095        0.8240680546       -0.0563942567
 C          5.8631572285        0.1395127709        0.6340388408
 C          6.6073047478        0.8158502433        1.5883331539
 C          6.3594199377        2.1578286943        1.8328384573
 C          5.3724009196        2.8316627975        1.1288110612
 C          4.6258590978        2.1616896207        0.1728300233
 H          3.8520841907        2.6491113430       -0.3967450981
 H          5.1821637411        3.8751626795        1.3220319442
 H          6.9384066671        2.6820485867        2.5766805014
 H          7.3751008146        0.2938677557        2.1365074287
 H          6.0162324973       -0.9051488535        0.4144968076
 H          1.7740547293        0.5411327690       -1.6637069526
 H          3.3232028672       -0.6227997106        1.4093585410
 H          2.1513728714       -2.1173567905        2.9890959186
 H         -0.1382472362       -2.8867082578        2.5044869361
 C         -1.6645077376       -2.3427747013        0.3278002956
 H         -1.9972272767       -2.9591233559        1.1735123454
 C         -1.6685548130       -3.2063657961       -0.9195458127
 C         -1.1603759322       -4.6123852533       -0.8293382940
 C         -2.6252955240       -4.3545785951       -1.0137472135
 H         -3.0738251413       -4.5740706890       -1.9710148729
 H         -3.2829710013       -4.5267991144       -0.1739532849
 H         -0.8250541800       -4.9622407353        0.1353267589
 H         -0.5978933529       -5.0105845687       -1.6600115034
 H         -1.4647419619       -2.6549142468       -1.8278346805
 O         -2.1040724403       -0.4445288975       -1.9314219620
