  62
        -98.93258551
 C          2.6979675958        0.3748734490       -0.2906281619
 C          2.2257345024        1.1943114311        0.7631712637
 C          1.6007960841        2.4733970495        0.3659837750
 C          1.4794123998        2.7840441217       -0.9344190773
 C          0.9091220826        4.0297983313       -1.5675274755
 C         -0.3537556036        4.6388301090       -0.9477116367
 C         -1.3597421648        3.6228585518       -0.3870079200
 H         -2.3490801702        3.8399958421       -0.7951641181
 H         -1.0966871998        2.6096710593       -0.6972095474
 C         -1.4618910793        3.6667537660        1.1391813924
 H         -1.4779881559        4.7102151420        1.4644329164
 H         -2.4083773714        3.2101749012        1.4401141187
 C         -0.3532084223        2.9251335765        1.8840955292
 H         -0.4867863022        3.1043691679        2.9545682835
 H         -0.4668249419        1.8484821416        1.7273341922
 C          1.0820770931        3.3174360065        1.4954186038
 H          1.7296995685        3.1034568360        2.3506082080
 H          1.1501614190        4.3786442000        1.2658792020
 H         -0.0734935935        5.3343348785       -0.1575631273
 H         -0.8321851605        5.2292658021       -1.7313160231
 H          0.7063331100        3.7483909492       -2.6038518759
 H          1.6979629306        4.7883471018       -1.5888111792
 O          1.9437841152        1.9619191127       -1.9187258832
 C          2.5302436401        0.7472648366       -1.6260370404
 O          2.8826845104        0.0936243291       -2.6304742004
 O          2.3255502471        0.9124101218        1.9853421060
 C          3.2783716244       -1.0200305753       -0.1046708073
 C          2.2049071620       -2.0377817306       -0.4076944273
 C          2.4798905465       -3.2142543184       -1.0923546665
 C          1.4675418752       -4.1178652088       -1.3707519223
 C          0.1598316129       -3.8474431944       -1.0129881567
 C         -0.1287416076       -2.6599503074       -0.3469830238
 C          0.8967035320       -1.7910173945       -0.0150518460
 H          0.6660597168       -0.8924887507        0.5373849216
 N         -1.4625247219       -2.3045193188       -0.0685322867
 S         -1.8507347547       -0.7316442188        0.3572393419
 O         -1.2580858213        0.1540371537       -0.6110407189
 O         -1.5651261535       -0.4809764189        1.7542386444
 C         -3.6162937812       -0.7913885559        0.1216903771
 C         -4.4463580423       -0.9909620872        1.2080027225
 C         -5.8152957653       -1.0649251784        1.0025607917
 C         -6.3282201848       -0.9401961669       -0.2795753424
 C         -5.4828630976       -0.7371638444       -1.3604763233
 C         -4.1136728124       -0.6626629868       -1.1609188750
 H         -3.4174264490       -0.4975966361       -1.9670438740
 H         -5.8846909318       -0.6366147773       -2.3558201658
 H         -7.3935660876       -0.9979634792       -0.4375826000
 H         -6.4747026944       -1.2187576516        1.8415042552
 H         -4.0031405183       -1.0708883491        2.1876282670
 H         -2.0241213833       -3.0109443658        0.3810122216
 H         -0.6354054122       -4.5334926287       -1.2574489843
 H          1.6976452107       -5.0335329033       -1.8939413914
 H          3.4888584700       -3.4111471540       -1.4239685946
 H          4.0561855743       -1.1293750212       -0.8792525752
 C          3.9423520690       -1.2489546686        1.2436663622
 C          3.2798121837       -1.9990379965        2.3557195250
 C          4.4359032624       -2.6126293649        1.6280968489
 H          5.3841511538       -2.6881915764        2.1381243303
 H          4.2246468990       -3.4320969358        0.9586802751
 H          3.4220287185       -1.6331562094        3.3608195441
 H          2.2910595136       -2.3943602753        2.1774783714
 H          4.5614499856       -0.4078789045        1.5357094964
