  62
        -98.94877581
 C          1.8184637427        1.3296197724       -0.2480891767
 C          2.8857593592        0.6371628741        0.3680695276
 C          3.2551372072       -0.6429990471       -0.2432184643
 C          2.5903633958       -1.0809819800       -1.3283274556
 C          2.8390694330       -2.3744227669       -2.0547634030
 C          2.1121985336       -3.5694939049       -1.4222422414
 C          2.7261231720       -4.0821728340       -0.1188170106
 H          2.2739298111       -5.0544013792        0.0874325557
 H          3.7969854972       -4.2402906694       -0.2554525403
 C          2.4854623293       -3.1654439231        1.0888470930
 H          2.1709971995       -3.7684990002        1.9449124390
 H          1.6586756668       -2.4861026621        0.8640478435
 C          3.7076521406       -2.3574336609        1.5279059348
 H          4.4833112217       -3.0373156760        1.8885506595
 H          3.4108794031       -1.7143604087        2.3609895165
 C          4.3096390531       -1.4664144799        0.4333472449
 H          5.0181988805       -0.7796581098        0.9036538230
 H          4.8431154037       -2.0757898412       -0.2955684479
 H          2.1188149152       -4.3838798141       -2.1507381979
 H          1.0716883907       -3.2867775034       -1.2404425817
 H          3.9096221927       -2.5763387288       -2.1020498747
 H          2.4623798604       -2.2397547119       -3.0709215843
 O          1.5922318118       -0.3704436954       -1.9113587829
 C          1.1383364187        0.8110002060       -1.3509833841
 O          0.1532805789        1.3091074797       -1.9297571301
 O          3.4901378453        1.0628250089        1.3916235334
 C          1.2918059550        2.6035378186        0.3927265861
 C         -0.1466768560        2.3634044197        0.7784340291
 C         -1.1946280451        3.2175781955        0.4625367082
 C         -2.5033633501        2.8591577211        0.7409509164
 C         -2.7957948360        1.6337481663        1.3122518850
 C         -1.7509802446        0.7878157485        1.6577567953
 C         -0.4429363670        1.1688004989        1.4245040066
 H          0.3618173659        0.4925860889        1.6872393282
 N         -2.0513352742       -0.5207382898        2.1437459334
 S         -1.9266382825       -1.6306753908        0.8707738494
 O         -2.2690570198       -2.9180334463        1.4390443104
 O         -0.6294804311       -1.5668843044        0.2324550418
 C         -3.2098740827       -1.0743384711       -0.2224802190
 C         -2.9053912372       -0.1912941357       -1.2393951704
 C         -3.9360458340        0.2779921563       -2.0398566677
 C         -5.2384708197       -0.1377307133       -1.8101949578
 C         -5.5248412154       -1.0263104843       -0.7841764323
 C         -4.5019760106       -1.4981828582        0.0218083884
 H         -4.6711053077       -2.1899804190        0.8305308530
 H         -6.5387127383       -1.3481740226       -0.6089234211
 H         -6.0345772294        0.2341818304       -2.4357839666
 H         -3.7083536135        0.9712574797       -2.8335963836
 H         -1.8829557605        0.1210469353       -1.3936510234
 H         -1.4156023026       -0.8181206653        2.8732862988
 H         -3.8122830042        1.3212693514        1.4873212980
 H         -3.3069731969        3.5299729684        0.4797654446
 H         -0.9873156068        4.1562673213       -0.0248242831
 H          1.8889821367        2.7452338840        1.3057574365
 C          1.4884302304        3.7970966771       -0.5160894838
 C          1.6254777302        5.1722675132        0.0645885906
 C          2.8182640834        4.4872204748       -0.5294376725
 H          3.2041538700        4.8433342201       -1.4726642223
 H          3.5792348212        4.1088332894        0.1374707945
 H          1.1948137046        6.0038402342       -0.4721805161
 H          1.5802513607        5.2680663833        1.1388391418
 H          0.9719151015        3.6866218697       -1.4628326707
