  62
        -98.93728529
 C         -1.1263471498       -1.5420618298       -0.4747830306
 C         -1.3200985804       -0.1601181097       -0.7149859999
 C         -2.4660609306        0.4700386294       -0.0247756994
 C         -3.2459466202       -0.2725822013        0.7770297303
 C         -4.4657618202        0.1590274677        1.5449136907
 C         -5.7456963102       -0.0567795924        0.7194023007
 C         -6.1357227909        1.1127860279       -0.1831249486
 H         -6.9833381208        0.7865095579       -0.7900822387
 H         -6.4764908511        1.9452840475        0.4359811119
 C         -5.0281740112        1.6137434689       -1.1127169085
 H         -5.4987075915        2.1627593491       -1.9304852782
 H         -4.5055449309        0.7617424294       -1.5510785590
 C         -4.0195310115        2.5343389290       -0.4094830081
 H         -3.9154223520        3.4609517193       -0.9783036277
 H         -4.4083305215        2.8158309383        0.5687741121
 C         -2.6100570512        1.9495946595       -0.2583476286
 H         -2.0393138414        2.1410579802       -1.1732962786
 H         -2.0850524113        2.4703720993        0.5518570416
 H         -6.5748304801       -0.2467614331        1.4040738707
 H         -5.6066698399       -0.9577278120        0.1164172702
 H         -4.5106519799       -0.4787142627        2.4305058203
 H         -4.3718006706        1.1918180476        1.8675623012
 O         -3.0372643296       -1.6068007413        0.9631412896
 C         -1.9740347894       -2.2598138806        0.3708121191
 O         -1.8932256088       -3.4723430807        0.6585758784
 H          0.9463030998       -0.2053025193        0.3757613298
 C          1.5321192902       -1.0888463792        0.5683822993
 C          1.2066447006       -2.2806403990       -0.0624810313
 C          1.9631319611       -3.4127534288        0.2174842180
 C          3.0205936912       -3.3461696288        1.1078397679
 C          3.3410804208       -2.1566770090        1.7367265685
 C          2.5828933703       -1.0204397892        1.4711310792
 N          2.8647787498        0.1898068306        2.1028693798
 S          2.1330888092        1.6346881104        1.7407857906
 O          2.8846570588        2.5984412904        2.5204321010
 O          0.7178786192        1.5817136897        2.0187056608
 C          2.4346664988        1.9296020315        0.0097644508
 C          1.4744383184        2.5866095815       -0.7303376988
 C          1.7229471482        2.8514207823       -2.0672465087
 C          2.9222469683        2.4573635031       -2.6372079190
 C          3.8806881786        1.8029110131       -1.8786335895
 C          3.6388747389        1.5374601723       -0.5409141996
 H          4.3652847092        1.0280507123        0.0712055300
 H          4.8116560987        1.4939795337       -2.3262456998
 H          3.1108044581        2.6593832837       -3.6799461489
 H          0.9731708079        3.3531582823       -2.6570385483
 H          0.5459460184        2.8600528608       -0.2563614485
 H          3.6872023599        0.2468091506        2.6801354997
 H          4.1596337108       -2.1068858191        2.4378235784
 H          3.5997001916       -4.2320545787        1.3195527174
 H          1.7053508815       -4.3512582487       -0.2507298125
 C          0.0489107005       -2.3311214190       -1.0284700812
 H         -0.2945739491       -3.3772547191       -1.0758227417
 C          0.4487532402       -1.9183455681       -2.4382143710
 C          1.6599864598       -1.0932016874       -2.7380056907
 C          1.6391127503       -2.5453121172       -3.1024579815
 H          1.5616853703       -2.8177252767       -4.1440636716
 H          2.2444860707       -3.2164818673       -2.5127633019
 H          1.5792429294       -0.3525379370       -3.5180958703
 H          2.2758962097       -0.7781555476       -1.9102067307
 H         -0.4198568300       -1.7411554281       -3.0637634308
 O         -0.5920543408        0.5358998410       -1.4663938896
