  62
        -98.94362078
 C         -1.9996089283       -1.3732385688       -0.1660191964
 C         -1.8827069193       -0.0375679512       -0.6209818808
 C         -3.1425374213        0.7152652681       -0.7141617766
 C         -4.3000860169        0.1089493501       -0.3934894006
 C         -5.6453295566        0.7744493581       -0.3947015089
 C         -5.9690673202        1.3753806063        0.9803299587
 C         -4.8430957970        2.2305951495        1.5618246555
 H         -5.1953105857        2.6251244362        2.5175151455
 H         -3.9835867229        1.5912219063        1.7764497162
 C         -4.3974918455        3.3919995202        0.6622393535
 H         -5.1663600768        3.5984881165       -0.0832341874
 H         -4.2926502632        4.2891036201        1.2761700634
 C         -3.0559363750        3.1730026522       -0.0399398162
 H         -2.7365613085        4.1284159619       -0.4648331223
 H         -2.3034747018        2.8731453529        0.6941850436
 C         -3.0600533624        2.1427738952       -1.1763912276
 H         -2.1083643644        2.2292413857       -1.7085239730
 H         -3.8665792982        2.3703535685       -1.8762130511
 H         -6.8755404750        1.9767098927        0.8898577986
 H         -6.1723723150        0.5581506125        1.6764439737
 H         -6.3998255597        0.0250765608       -0.6401110082
 H         -5.6600159467        1.5525796462       -1.1553394251
 O         -4.3723821907       -1.1826045273        0.0200031243
 C         -3.2269726833       -1.9508639603        0.1550391642
 O         -3.4290919997       -3.1126307255        0.5643582137
 O         -0.7886600722        0.4976193035       -0.9314121253
 C         -0.7556145345       -2.2311329850       -0.0330222888
 C          0.2616784294       -1.5631787898        0.8600339476
 C         -0.1606140732       -0.9338788184        2.0276968924
 C          0.7439603262       -0.3096804047        2.8653585241
 C          2.0959113045       -0.3130445100        2.5688427851
 C          2.5308955242       -0.9512421941        1.4158818604
 C          1.6178380685       -1.5701512046        0.5702602683
 H          1.9752756778       -2.0589707780       -0.3229018040
 N          3.9098971231       -0.9772370421        1.1194329510
 S          4.6774378617        0.4791014478        0.8095910687
 O          6.0380745944        0.1309781490        0.4692946133
 O          4.5026471122        1.3525596488        1.9409995283
 C          3.8437804419        1.1338727657       -0.6238508909
 C          2.5946706741        1.7007118803       -0.4680646710
 C          1.9130541081        2.1366553714       -1.5926485444
 C          2.4907878502        1.9997625206       -2.8453347290
 C          3.7481861722        1.4314577562       -2.9850679657
 C          4.4309666740        0.9860895084       -1.8650880520
 H          5.4084390622        0.5349809975       -1.9258881825
 H          4.1931431309        1.3282227205       -3.9619483726
 H          1.9534901546        2.3356929380       -3.7184410966
 H          0.9249015682        2.5519689153       -1.4837956379
 H          2.1691410047        1.7898333388        0.5182061950
 H          4.1462390041       -1.6321112315        0.3865485153
 H          2.8135521710        0.1812639450        3.2029650988
 H          0.3951266570        0.1813941694        3.7616824221
 H         -1.2155255697       -0.9332737173        2.2678198824
 H         -1.0775161063       -3.1631316108        0.4549942427
 C         -0.2178196125       -2.5634767235       -1.4108963811
 C          0.4773928644       -3.8667487216       -1.6645634254
 C         -0.8982961105       -3.6320564456       -2.2104404123
 H         -1.0157749880       -3.4863832221       -3.2737035292
 H         -1.7295475227       -4.1425813551       -1.7458263636
 H          1.3041503263       -3.8852436474       -2.3591084711
 H          0.5812811583       -4.5503020763       -0.8352422546
 H          0.1278584896       -1.6840989378       -1.9428750524
