  62
        -98.94410116
 C         -2.1140940870       -0.9316823139        0.1253053287
 C         -2.4712146525        0.3769993674       -0.2809189138
 C         -3.7599898887        0.8700815386        0.2238741430
 C         -4.4987703941        0.1037106670        1.0459738293
 C         -5.8187711997        0.4796193699        1.6626169018
 C         -7.0277622216        0.2359586811        0.7490001873
 C         -7.1680338861        1.2127654730       -0.4191677691
 H         -8.1636280339        1.0649983494       -0.8422529161
 H         -7.1229735518        2.2355124193       -0.0434910320
 C         -6.1266289783        1.0240967916       -1.5310281471
 H         -5.6615914974        0.0406734434       -1.4314012204
 H         -6.6240903878        1.0458821054       -2.5033048115
 C         -5.0298882586        2.0887089830       -1.5595109844
 H         -5.4691710696        3.0618331968       -1.7902425160
 H         -4.3291610736        1.8377606811       -2.3598560734
 C         -4.2335452747        2.2098105195       -0.2535996318
 H         -3.3508363351        2.8253003581       -0.4444697536
 H         -4.8382984050        2.6954746144        0.5119897965
 H         -6.9756850364       -0.7856486048        0.3656221516
 H         -7.9243748441        0.3129698836        1.3683351627
 H         -5.9315227953       -0.1396191275        2.5551734807
 H         -5.7961646636        1.5263844383        1.9672752162
 O         -4.1037060691       -1.1360574318        1.4398473808
 C         -2.9168181737       -1.6847621814        0.9854780698
 O         -2.6874859381       -2.8337920344        1.4134378601
 H          0.8327470097        0.3972838461       -1.3386674926
 C          1.0613573942        0.1485224494       -0.3148921890
 C          0.3295442195       -0.8302193215        0.3383859409
 C          0.6321206834       -1.1145668280        1.6674672006
 C          1.6339702003       -0.4277120385        2.3266687335
 C          2.3533871772        0.5600856472        1.6763921735
 C          2.0583813043        0.8509318365        0.3512891896
 N          2.7777155829        1.8551327313       -0.3144027377
 S          4.4329822124        1.9345837465       -0.1102496425
 O          4.7421322571        2.5747761042        1.1444278555
 O          4.9292158847        2.5973713859       -1.2957913201
 C          4.9789330635        0.2360379883       -0.0710467661
 C          4.7452889905       -0.5473603796       -1.1840807991
 C          5.1347832837       -1.8764012243       -1.1621373382
 C          5.7469908296       -2.3977339624       -0.0323630317
 C          5.9782223927       -1.5974813661        1.0753670158
 C          5.5898834335       -0.2672316522        1.0590653821
 H          5.7501375589        0.3894267487        1.8986438615
 H          6.4563191061       -2.0048826162        1.9516028545
 H          6.0459388354       -3.4339778930       -0.0168225940
 H          4.9572103864       -2.5006328280       -2.0231063384
 H          4.2731784282       -0.1097361458       -2.0488524767
 H          2.5040785066        1.9928178353       -1.2754945365
 H          3.1239250342        1.1202485824        2.1806945535
 H          1.8552592825       -0.6581461312        3.3576984523
 H          0.0586344000       -1.8749401617        2.1795815027
 C         -0.8080176519       -1.5683446152       -0.3243036828
 H         -0.8226794692       -2.5920817776        0.0725142580
 C         -0.7033758912       -1.6334273947       -1.8335225675
 C          0.3206263822       -2.5316553652       -2.4578644309
 C         -1.1343529406       -2.8807623769       -2.5420265806
 H         -1.6351862852       -2.7848618390       -3.4938896182
 H         -1.5015165948       -3.6974712142       -1.9376623737
 H          0.8209051928       -2.2005151339       -3.3550654113
 H          0.9419182537       -3.1124671214       -1.7932667816
 H         -0.9200450631       -0.6910710399       -2.3208886899
 O         -1.7645343931        1.1036076441       -1.0272222389
