  62
        -98.94325081
 C         -1.2931719563       -1.0151036515       -0.0155563522
 C         -1.8014633654        0.0568502226        0.7570200803
 C         -2.7472279960        0.9496536257        0.0738820130
 C         -3.0524074188        0.7207066566       -1.2165114492
 C         -4.0374210170        1.5209633456       -2.0177397728
 C         -5.4471636198        0.9205655054       -1.9252285395
 C         -5.8979077225        0.6202847183       -0.4956518378
 H         -6.9165162775        0.2302387457       -0.5516058602
 H         -5.2718110631       -0.1749259050       -0.0846103435
 C         -5.8647409986        1.8305402198        0.4482103178
 H         -5.8313259820        2.7527765413       -0.1331110773
 H         -6.7899679853        1.8471320064        1.0280848708
 C         -4.7100616533        1.8207932730        1.4516048003
 H         -4.6855765744        0.8593703488        1.9705649434
 H         -4.9053601789        2.5924602905        2.2009486674
 C         -3.3168502162        2.0904682725        0.8692103197
 H         -3.3383344694        3.0050073235        0.2729490373
 H         -2.6307361992        2.2405540492        1.7078390165
 H         -6.1487849405        1.6141558290       -2.3924030825
 H         -5.4638033276       -0.0127291414       -2.4929773663
 H         -4.0446339957        2.5474430362       -1.6558445973
 H         -3.7179567091        1.5157958060       -3.0614190624
 O         -2.5236129552       -0.3039497156       -1.9341917815
 C         -1.6353379456       -1.2013413937       -1.3547469658
 O         -1.2269733995       -2.0898735826       -2.1258451052
 H          0.8079917597        0.0891148615       -0.6897361289
 C          1.4700832416       -0.7676483589       -0.6533815282
 C          1.0386929767       -1.9343482865       -0.0376198242
 C          1.9138352187       -3.0144655290        0.0022384970
 C          3.1769648502       -2.9243872099       -0.5569625481
 C          3.6003097905       -1.7572750665       -1.1681812964
 C          2.7314509344       -0.6782487036       -1.2215614935
 N          3.1738533008        0.5375587317       -1.8062448858
 S          4.0898992782        1.4617341845       -0.7448892373
 O          4.2616322407        2.7496340119       -1.3779894270
 O          5.2919917064        0.7331554838       -0.4326796922
 C          3.0578904724        1.6090207128        0.7013202739
 C          3.1042188609        0.6166766374        1.6599289685
 C          2.2046535819        0.6623715102        2.7126932418
 C          1.2749489003        1.6877922298        2.7860767397
 C          1.2449137076        2.6788962643        1.8173210212
 C          2.1381744787        2.6371308297        0.7592668602
 H          2.1427596488        3.3852203943       -0.0181546590
 H          0.5173782481        3.4727287298        1.8763180523
 H          0.5586487526        1.7056887628        3.5915253630
 H          2.2208396229       -0.1096266734        3.4651168807
 H          3.8373709692       -0.1680267621        1.5646475998
 H          2.4088437721        1.1073150687       -2.1416953717
 H          4.5867394072       -1.6596681052       -1.5907614944
 H          3.8420068339       -3.7732895866       -0.5139132013
 H          1.6045226173       -3.9307323414        0.4784825832
 C         -0.3136236793       -1.9714842692        0.6321394099
 H         -0.1815957333       -1.5951570558        1.6588724602
 C         -0.8981331371       -3.3691812803        0.6992564287
 C         -0.6370040137       -4.2519537922        1.8821215988
 C         -1.9923227938       -3.6447257059        1.6857984136
 H         -2.8100152515       -4.2827915972        1.3858967246
 H         -2.2877706625       -2.8333009097        2.3350515024
 H         -0.5248181915       -5.3131524511        1.7177677320
 H         -0.0209875210       -3.8588818129        2.6767275071
 H         -0.9789103483       -3.8315653618       -0.2780899086
 O         -1.4753642996        0.2587824413        1.9559614744
