  62
        -98.93890229
 C         -2.1828868605       -0.6383897505        0.5539097907
 C         -2.0029259612        0.0951353896       -0.6412831493
 C         -1.7908851818        1.5465867797       -0.5008217294
 C         -1.7553903216        2.0914958797        0.7290380406
 C         -1.4693513820        3.5055270998        1.1928476806
 C         -1.3908856329        4.6536806199        0.1910406006
 C         -2.7301968233        5.0403089293       -0.4365930689
 H         -3.3449224932        5.5180291890        0.3302935613
 H         -2.5423860039        5.7767456194       -1.2206204490
 C         -3.5389236630        3.8850690490       -1.0204940487
 H         -3.7868647324        3.1744422588       -0.2296787186
 H         -4.4808277033        4.2924167986       -1.3975037883
 C         -2.8662726731        3.1335819493       -2.1668917389
 H         -2.5851973737        3.8370543294       -2.9530247190
 H         -3.6017461230        2.4408884790       -2.5844168687
 C         -1.6249450026        2.3117827998       -1.7820947794
 H         -0.7312220529        2.9302139202       -1.7400196297
 H         -1.4576192426        1.5602046699       -2.5594321695
 H         -0.6548087331        4.4268477902       -0.5746731497
 H         -1.0194230831        5.5229207400        0.7406790105
 H         -2.2285929318        3.7362668095        1.9476046909
 H         -0.5137050618        3.4416754602        1.7263278802
 O         -1.9520749908        1.3424820896        1.8564762507
 C         -2.1438926303       -0.0253252105        1.8024164007
 O         -2.2739926496       -0.5732547006        2.9181492308
 O         -2.0078438114       -0.4394466504       -1.7817629393
 C         -2.2755158998       -2.1533103205        0.5039265307
 C         -1.0192457999       -2.6827254100       -0.1481316498
 C         -1.0083255098       -3.6904084799       -1.1033450398
 C          0.1811855902       -4.0734238194       -1.7000502502
 C          1.3727685200       -3.4515799789       -1.3759729807
 C          1.3742924899       -2.4572938089       -0.4035321906
 C          0.1898550300       -2.1061897695        0.2197921698
 H          0.2060504000       -1.3348285495        0.9773862698
 N          2.5606396998       -1.8006714684       -0.0293430511
 S          2.4446623193       -0.1666169285        0.3926064190
 O          2.1086596697       -0.0745451487        1.7931948492
 O          1.5803222286        0.5374190512       -0.5258712506
 C          4.1377857689        0.3438816622        0.1556650284
 C          5.0670993294        0.0437551226        1.1338691481
 C          6.3884956992        0.4126118832        0.9378045776
 C          6.7568421485        1.0714785934       -0.2259983225
 C          5.8128002080        1.3680709030       -1.1974988722
 C          4.4897128282        1.0002065024       -1.0085082917
 H          3.7184073079        1.2149931221       -1.7308336614
 H          6.1004126475        1.8835232731       -2.0995986723
 H          7.7856317083        1.3585606138       -0.3752850829
 H          7.1244550696        0.1864440835        1.6922719773
 H          4.7308507100       -0.4595983976        2.0253285082
 H          3.3185206496       -1.9618136781       -0.6792146113
 H          2.2921748599       -3.7285555685       -1.8688758210
 H          0.1754993502       -4.8526456594       -2.4471138402
 H         -1.9322695597       -4.1635984003       -1.3931794595
 H         -2.2939451393       -2.4929778806        1.5505495307
 C         -3.5484961899       -2.6010597911       -0.1823019588
 C         -4.1899863292       -3.9033168513        0.1897226014
 C         -4.8266834696       -2.6102743616        0.5991606917
 H         -5.7350686699       -2.3003816620        0.1049502420
 H         -4.7723731994       -2.3164625416        1.6376189016
 H         -4.6668132093       -4.4832567515       -0.5859664184
 H         -3.7117957987       -4.4953196612        0.9554359112
 H         -3.5950665304       -2.2801095110       -1.2164261588
