  62
        -98.94091458
 C          2.2914313862        0.8864121870       -0.1918266525
 C          3.5979720546        1.2141531584        0.2442456850
 C          4.6816558385        0.3979894285       -0.3132611491
 C          4.3961647810       -0.5748865256       -1.1979175813
 C          5.3944203237       -1.4733136376       -1.8768503080
 C          5.8030285657       -2.6958796524       -1.0435860574
 C          6.7117214217       -2.3957368713        0.1491656343
 H          7.0921317117       -3.3531525231        0.5105538152
 H          7.5683414618       -1.8107198105       -0.1867645350
 C          6.0144353977       -1.6719713327        1.3095121647
 H          6.2825032300       -2.1532010653        2.2527809738
 H          4.9315238428       -1.7665292657        1.1988969366
 C          6.3717688570       -0.1911633230        1.4385146451
 H          5.7958720162        0.2296952326        2.2666320215
 H          7.4320245903       -0.0897035565        1.6800598206
 C          6.0746742986        0.6414740158        0.1843457784
 H          6.1530066563        1.6989602959        0.4478098966
 H          6.8021620558        0.4197459746       -0.5959300645
 H          6.3291344199       -3.3828979208       -1.7104247338
 H          4.8976379008       -3.1987542132       -0.6956706929
 H          4.9194571582       -1.8257294754       -2.7949816855
 H          6.2823049185       -0.8990663187       -2.1428074271
 O          3.1268963934       -0.8484815283       -1.6040521229
 C          2.0431561152       -0.1450996052       -1.0967923288
 O          0.9381258187       -0.5265995383       -1.5299272022
 H         -1.5936380476        1.2558866640       -0.0477422457
 C         -1.1770612980        0.6560136300        0.7425226791
 C          0.1661830544        0.7511622474        1.0687753867
 C          0.6626963797       -0.0432468065        2.1000363599
 C         -0.1607272028       -0.9245970153        2.7715332167
 C         -1.4954567163       -1.0374238273        2.4231107245
 C         -2.0046060912       -0.2419929042        1.4042023232
 N         -3.3725423837       -0.3091501024        1.0719649120
 S         -3.8519450506       -0.3848451711       -0.5466312295
 O         -3.3564035645       -1.5978432575       -1.1607104357
 O         -3.5297117196        0.8549263979       -1.2034503815
 C         -5.6181026992       -0.4969121611       -0.3187592268
 C         -6.2525097029       -1.7171132441       -0.4508686128
 C         -7.6214759085       -1.7873768997       -0.2439234971
 C         -8.3280927693       -0.6429635758        0.0929360625
 C         -7.6774091194        0.5753608346        0.2214558709
 C         -6.3095417904        0.6523906244        0.0142772868
 H         -5.7625989743        1.5771422946        0.0948304289
 H         -8.2305680924        1.4635151831        0.4812286830
 H         -9.3930255949       -0.7003863970        0.2538575000
 H         -8.1302369399       -2.7323748224       -0.3462804795
 H         -5.6633198527       -2.5786075644       -0.7216589004
 H         -3.8386773866       -1.0534209872        1.5762024649
 H         -2.1378548905       -1.7357850781        2.9385155959
 H          0.2391311739       -1.5366817351        3.5661551349
 H          1.7093816690        0.0374292623        2.3613522719
 C          1.1171389164        1.6786680506        0.3542925970
 H          1.5501367601        2.3663545614        1.0962495444
 C          0.4681233126        2.4948544801       -0.7424041937
 C         -0.2726506697        3.7525250171       -0.4032111942
 C          1.0515212840        3.8275372139       -1.1005055076
 H          1.0738727354        4.1169380748       -2.1404570294
 H          1.9102416754        4.1595158957       -0.5353421747
 H         -0.3148810739        4.0402665938        0.6363798700
 H         -1.1651898593        3.9873172451       -0.9633541528
 H          0.0871847533        1.8817693625       -1.5526995823
 O          3.8448598747        2.1417828801        1.0604123619
