  62
        -98.94571307
 C         -0.9535510378       -1.1608081998       -0.2617905247
 C         -1.9818258560       -1.2078712374        0.7165916252
 C         -2.8769452309       -0.0469897439        0.7839230217
 C         -2.6812112976        0.9787012719       -0.0640302126
 C         -3.5629908362        2.1893200287       -0.1610972423
 C         -4.6872673456        1.9767720877       -1.1849345414
 C         -5.4482146501        0.6631668307       -1.0062178164
 H         -6.2353475350        0.6374785272       -1.7630406751
 H         -4.7744329012       -0.1706819744       -1.2162374098
 C         -6.0696839033        0.4736414569        0.3845694186
 H         -7.0907379577        0.1051771173        0.2647637182
 H         -6.1308693722        1.4340933421        0.8975041945
 C         -5.3349175445       -0.5305497420        1.2744345738
 H         -5.9700195168       -0.7489760961        2.1371343702
 H         -5.1919923237       -1.4668578063        0.7291192307
 C         -3.9729907802       -0.0731636829        1.8119346687
 H         -4.0760672185        0.9029397701        2.2896487259
 H         -3.6564201224       -0.7961545584        2.5691182814
 H         -5.3835426771        2.8143310825       -1.1123048304
 H         -4.2500099707        1.9842210837       -2.1860461494
 H         -2.9545271938        3.0360611133       -0.4800986972
 H         -3.9872472825        2.4026113180        0.8179999339
 O         -1.6782995143        0.9989273204       -0.9749309995
 C         -0.7829423401       -0.0550035441       -1.0951463514
 O          0.0829734330        0.1325514006       -1.9717516440
 O         -2.1469891824       -2.1858301704        1.4938009481
 C         -0.0366400855       -2.3712257630       -0.3345657619
 C          1.2119600750       -2.1320717272        0.4795119565
 C          1.4380160163       -2.8544503179        1.6458938639
 C          2.5692861540       -2.6259522397        2.4083052825
 C          3.4873885149       -1.6646508413        2.0284009454
 C          3.2670554115       -0.9320402317        0.8657925559
 C          2.1396040729       -1.1735292475        0.0936467527
 H          1.9817113657       -0.6005269011       -0.8066021573
 N          4.1798601880        0.0538058825        0.4743247789
 S          3.7574667685        1.3357411465       -0.4991619714
 O          3.6639375346        0.9125412798       -1.8729317909
 O          4.7851450294        2.3225187858       -0.2274689728
 C          2.1975029187        1.9795692692        0.0824362325
 C          1.4098010021        2.6581447099       -0.8242041636
 C          0.2367031714        3.2505189977       -0.3860557397
 C         -0.1337010136        3.1454828204        0.9449542626
 C          0.6642569758        2.4545603712        1.8424419073
 C          1.8470886992        1.8741139623        1.4133946537
 H          2.4811756172        1.3394565956        2.1017109284
 H          0.3692761343        2.3655771893        2.8758098626
 H         -1.0508558430        3.5999896561        1.2856103773
 H         -0.3854057351        3.7805506886       -1.0895698042
 H          1.7189669783        2.6943694079       -1.8563325338
 H          4.8893361266        0.2955044191        1.1494276024
 H          4.3681686672       -1.4771055025        2.6231572187
 H          2.7342462945       -3.1951766301        3.3102763555
 H          0.7099206304       -3.5877970508        1.9593592006
 H         -0.5973410400       -3.1822827107        0.1505361739
 C          0.3020490245       -2.8065113940       -1.7455526838
 C          0.7077095806       -4.2289798600       -1.9851285320
 C         -0.6238026087       -3.7375363782       -2.4667094358
 H         -0.7726250531       -3.5959428213       -3.5266748413
 H         -1.5087758445       -4.0683723051       -1.9424889320
 H          1.4780741264       -4.4276627891       -2.7143815582
 H          0.7234170527       -4.8952118652       -1.1357814618
 H          0.7895471872       -2.0393151981       -2.3329645478
