  62
        -98.92781274
 C         -2.4985599803        0.2680700742        0.6480455284
 C         -2.1934145329        0.8523526895       -0.6038387382
 C         -1.5846304747        2.1941926762       -0.5689217683
 C         -1.3489903570        2.7830124859        0.6153480224
 C         -0.7805728725        4.1512587825        0.9066980334
 C          0.3593369195        4.6675299832        0.0227460970
 C          1.3869040101        3.6067447377       -0.3971719028
 H          2.3890903519        3.9714497837       -0.1624553250
 H          1.2343418894        2.6851561398        0.1683753187
 C          1.3356469566        3.2856534506       -1.8922712823
 H          1.2234277709        4.2150484681       -2.4558753921
 H          2.2866849753        2.8353926612       -2.1864489108
 C          0.2277252133        2.3148128421       -2.2931494885
 H          0.2697309603        2.1731639222       -3.3760255821
 H          0.4119342246        1.3418792548       -1.8278580077
 C         -1.1944797836        2.7561694483       -1.9060415322
 H         -1.2945416918        3.8386016401       -1.9351446040
 H         -1.8934035414        2.3221049465       -2.6261916690
 H          0.8595167441        5.4539823096        0.5914725539
 H         -0.0543157502        5.1392890293       -0.8675591427
 H         -1.6064713830        4.8695961639        0.8787360381
 H         -0.4388834233        4.0976935367        1.9438221959
 O         -1.6746527305        2.1858350582        1.8000946974
 C         -2.2167703581        0.9155193915        1.8467317070
 O         -2.4125671673        0.4792155926        3.0033615812
 H         -0.4806668099       -1.1789851704        0.9764955625
 C         -0.7604123366       -1.8459587070        0.1729246258
 C         -2.1132233473       -2.0164430584       -0.1233217893
 C         -2.4373172684       -2.9192312124       -1.1253885540
 C         -1.4400712302       -3.5907998920       -1.8181581819
 C         -0.1037801354       -3.3633581419       -1.5606001033
 C          0.2375868634       -2.4591464389       -0.5581914351
 N          1.5838052987       -2.1278811788       -0.3245253007
 S          2.0391957026       -0.9714723342        0.7979461686
 O          1.9131573338       -1.4869844414        2.1469946565
 O          1.3592775029        0.2638153067        0.5094303368
 C          3.7631811351       -0.8207016840        0.3730057909
 C          4.7039017910       -1.5810523719        1.0410364366
 C          6.0365278702       -1.4723450113        0.6752389107
 C          6.4033538827       -0.6105885227       -0.3473759210
 C          5.4481440826        0.1485334176       -1.0071755384
 C          4.1144807890        0.0434002497       -0.6462366032
 H          3.3355422034        0.6171859545       -1.1218825838
 H          5.7369156274        0.8204162741       -1.7993104696
 H          7.4408659748       -0.5273514714       -0.6299802342
 H          6.7819639287       -2.0580061449        1.1886076758
 H          4.3741119364       -2.2269846413        1.8389237491
 H          2.2363641930       -2.8927576128       -0.4048062034
 H          0.6664768742       -3.8614342765       -2.1278636439
 H         -1.7188578838       -4.2906620898       -2.5915860157
 H         -3.4588162124       -3.1059285257       -1.4018575840
 C         -3.0340939458       -1.1591658786        0.7168530577
 H         -2.8851992021       -1.4725306760        1.7655296279
 C         -4.5386538287       -1.1239329711        0.4987525114
 C         -5.2224299006       -1.1965178945       -0.8297309356
 C         -5.4037505548       -2.3033362979        0.1675906727
 H         -6.3573798505       -2.3744150352        0.6701314501
 H         -4.9372851814       -3.2591936530       -0.0035182473
 H         -6.0515046090       -0.5256624473       -1.0029937044
 H         -4.6070105746       -1.3472264002       -1.7011964170
 H         -4.9687619386       -0.4199134061        1.2093225200
 O         -2.4202572763        0.2881843224       -1.7041723964
