  62
        -98.94072014
 C         -1.7674402606       -0.4969989107       -0.3959852296
 C         -2.9502709807       -0.6348246502       -1.1661602096
 C         -4.2132790506       -0.6119889013       -0.4206320894
 C         -4.1919825905       -0.5276908525        0.9216435707
 C         -5.3938870904       -0.5178652437        1.8267884108
 C         -6.0395445807        0.8648039860        1.9923588722
 C         -6.8102393210        1.3742080169        0.7736288028
 H         -7.5214571508        0.6133513371        0.4506075322
 H         -7.3874653712        2.2417730065        1.0994749337
 C         -5.9234309412        1.7880536283       -0.4091525869
 H         -4.8963180412        1.9253006882       -0.0629805469
 H         -6.2605613515        2.7514481786       -0.7981878259
 C         -5.9247373011        0.8021718094       -1.5776407278
 H         -6.9229966811        0.7574842796       -2.0185561978
 H         -5.2362898013        1.1736629103       -2.3412383776
 C         -5.4921869107       -0.6211915608       -1.2019504293
 H         -6.2809578205       -1.1179660116       -0.6373823896
 H         -5.3145231607       -1.1809782999       -2.1235736198
 H         -6.7339541506        0.8007164150        2.8332606823
 H         -5.2615178609        1.5840590559        2.2582649728
 H         -5.0481095702       -0.8559856146        2.8059842205
 H         -6.1365614602       -1.2255991335        1.4571773702
 O         -3.0344785504       -0.4638944729        1.6299862706
 C         -1.7963929605       -0.4304649820        0.9979954805
 O         -0.8344898804       -0.3515637525        1.7834858105
 O         -2.9487262208       -0.7785169190       -2.4179322697
 C         -0.4443718307       -0.4926725896       -1.1388785997
 C          0.5382539596       -1.4289173100       -0.4821713807
 C          0.1647007499       -2.7553424603       -0.2759463320
 C          1.0282035102       -3.6483824506        0.3254296371
 C          2.2972511602       -3.2476648107        0.7074920773
 C          2.6849840198       -1.9322784304        0.4947550385
 C          1.8044209495       -1.0304185000       -0.0872243105
 H          2.1195564493       -0.0090280498       -0.2150181996
 N          3.9635149298       -1.4835852404        0.8629895488
 S          4.8225914694       -0.5399631392       -0.2211527704
 O          4.4994472193       -0.8780619679       -1.5881011907
 O          6.2084029295       -0.7071957192        0.1631127093
 C          4.3330490690        1.1351068604        0.1281349813
 C          4.0207207787        1.9798258713       -0.9185156279
 C          3.6836750884        3.2954256410       -0.6413401466
 C          3.6667350584        3.7407818497        0.6717144138
 C          3.9833647588        2.8793501588        1.7113088730
 C          4.3236195291        1.5637843391        1.4405228517
 H          4.5764937993        0.8670113184        2.2220601410
 H          3.9652942188        3.2291646578        2.7308883933
 H          3.4020741682        4.7644384094        0.8854729649
 H          3.4346409481        3.9657744117       -1.4487614059
 H          4.0384716087        1.5885945823       -1.9234355983
 H          4.5514870400       -2.1852018007        1.2892872981
 H          2.9777362704       -3.9466480210        1.1700998066
 H          0.7175877605       -4.6694825609        0.4897560161
 H         -0.8225336100       -3.0733963102       -0.5839224221
 H         -0.6893195207       -0.9117107987       -2.1303271301
 C          0.1239305589        0.8971809208       -1.3866537985
 C         -0.7682051714        2.0998409006       -1.4479588272
 C          0.1885536688        1.9348413598       -0.3073868975
 H          1.0560781386        2.5771238899       -0.2660781770
 H         -0.2024531111        1.6670780987        0.6612767423
 H         -0.5603996017        2.8536386414       -2.1923049665
 H         -1.8217219314        1.9519800402       -1.2591971472
 H          0.9491496988        0.8763143417       -2.0928421086
