  62
        -98.93633369
 C          1.9612422745        0.6491329857        0.0604702620
 C          2.5819300886       -0.6105554461        0.2614002703
 C          3.9435521400       -0.7775374942       -0.2714791536
 C          4.5250119070        0.2475878695       -0.9169649313
 C          5.8799086636        0.2997498848       -1.5777608569
 C          7.0557920558       -0.3510637450       -0.8376171170
 C          6.9888979676       -0.2578735419        0.6937007247
 H          7.9343688286        0.1398456509        1.0670548662
 H          6.2022370742        0.4369862076        0.9925244992
 C          6.7527753649       -1.6132202389        1.3643867598
 H          7.0754842243       -1.5507354535        2.4064781784
 H          7.3786958305       -2.3614212134        0.8731029221
 C          5.3038745284       -2.0993309642        1.3688431292
 H          5.2909737457       -3.1162127868        1.7688840603
 H          4.7075354278       -1.4825213081        2.0467920097
 C          4.6005386825       -2.1000569608        0.0016146960
 H          5.2862162104       -2.3808771645       -0.7942616271
 H          3.7923609360       -2.8357971841        0.0401187087
 H          7.9626527558        0.1410331811       -1.1931951171
 H          7.1341323633       -1.3982326978       -1.1263162507
 H          5.7898646970       -0.1494268048       -2.5711784316
 H          6.0831114026        1.3634299878       -1.7234325019
 O          3.8938557405        1.4407629679       -1.0900002972
 C          2.6127394671        1.6797947869       -0.6158898588
 O          2.2012795602        2.8290812028       -0.8653162257
 H         -1.2540705109       -1.1743409196        0.3815119522
 C         -1.3387057813       -0.4510899789       -0.4158711383
 C         -0.4827855817        0.6402432264       -0.4607783012
 C         -0.6051460807        1.5441808801       -1.5120755124
 C         -1.5602653973        1.3515431664       -2.4926759945
 C         -2.4228095682        0.2702488069       -2.4360789199
 C         -2.3099461449       -0.6378121208       -1.3910215738
 N         -3.1721255664       -1.7478260095       -1.3044955491
 S         -4.0654269360       -1.9624513906        0.0949238846
 O         -3.1903389306       -2.2458917236        1.2024143682
 O         -5.0374022911       -2.9796002705       -0.2373844480
 C         -4.8842270285       -0.3959741514        0.3363701415
 C         -4.2053792239        0.6266097921        0.9687441760
 C         -4.8167230322        1.8650381421        1.0830014282
 C         -6.0895509666        2.0582787292        0.5684514292
 C         -6.7600510601        1.0199237699       -0.0603209812
 C         -6.1511918078       -0.2183854325       -0.1845051464
 H         -6.6363320555       -1.0544306286       -0.6618660651
 H         -7.7511959088        1.1723080384       -0.4561801670
 H         -6.5611856982        3.0239188093        0.6600623665
 H         -4.2931758023        2.6714876339        1.5707783492
 H         -3.2183986191        0.4407860233        1.3592090835
 H         -3.7720013675       -1.8598594012       -2.1099390776
 H         -3.1717034285        0.1243380058       -3.1999187685
 H         -1.6396444172        2.0559891004       -3.3066342255
 H          0.0699053791        2.3841884631       -1.5634084954
 C          0.5579329369        0.8172871551        0.6193074708
 H          0.4360670011       -0.0096216711        1.3328135839
 C          0.3582807172        2.1230013323        1.3632393305
 C         -0.6859910480        2.1974511982        2.4348511108
 C          0.7673324377        2.2137243901        2.8012608222
 H          1.2037282704        3.1355397232        3.1551884530
 H          1.1874149769        1.3290750353        3.2581656002
 H         -1.2516091714        3.1100635507        2.5412284125
 H         -1.2467599376        1.3002760509        2.6528379272
 H          0.5162934249        2.9996224368        0.7493403949
 O          2.0180724604       -1.5638650713        0.8637048873
