  62
        -98.92999657
 C          2.3422912269        0.8740547975        0.2897505436
 C          2.4343445574       -0.5277746288        0.4693146722
 C          3.6259108042       -1.2088479618       -0.0723877174
 C          4.5574492746       -0.4699726991       -0.7029553361
 C          5.8641712939       -0.9218520033       -1.2993276380
 C          6.9374020869       -1.1999888614       -0.2347690537
 C          6.4497853076       -1.9866690080        0.9789159173
 H          7.2694541698       -2.0247855971        1.7012345193
 H          5.6275332420       -1.4454688285        1.4506574440
 C          6.0135168471       -3.4214486478        0.6920974619
 H          5.7843461657       -3.8888020100        1.6532389987
 H          6.8481730619       -3.9681008009        0.2477352118
 C          4.7907590190       -3.5806168125       -0.2142519721
 H          4.4511264559       -4.6166165343       -0.1242423751
 H          5.0523648008       -3.4316409397       -1.2583806139
 C          3.6019139557       -2.7004342022        0.1593607866
 H          2.7143842129       -3.0651023254       -0.3728444462
 H          3.3717450957       -2.8376842134        1.2223529264
 H          7.3155259022       -0.2390017132        0.1221489631
 H          7.7631464367       -1.7328675549       -0.7090468438
 H          6.2127244920       -0.1088051503       -1.9398420181
 H          5.7057420434       -1.7937764165       -1.9269168540
 O          4.4317573063        0.8782573274       -0.8488291729
 C          3.3384619122        1.5872908845       -0.3775083451
 O          3.3930636059        2.8067907139       -0.6175664953
 O          1.5538644928       -1.1971079023        1.0783791294
 C          1.1070261317        1.5545705125        0.8510053050
 C          0.0221129513        1.6391152865       -0.1924548438
 C          0.2649426128        2.2027448122       -1.4419844966
 C         -0.7421733882        2.2666135044       -2.3869953160
 C         -2.0014906850        1.7638868805       -2.1105917622
 C         -2.2550296592        1.1993867206       -0.8659245241
 C         -1.2439199448        1.1442412544        0.0842599231
 H         -1.4473978018        0.6858067886        1.0403401478
 N         -3.5377913387        0.7173560258       -0.5511239865
 S         -3.6731731934       -0.6905133765        0.3748006333
 O         -3.4370205421       -0.3602989092        1.7572437717
 O         -2.8550920122       -1.7381804284       -0.1935141889
 C         -5.4022158539       -1.0553103731        0.1344192485
 C         -5.7746768508       -2.0046402820       -0.7982609006
 C         -7.1231570234       -2.2590039934       -0.9943031052
 C         -8.0708321425       -1.5614839145       -0.2605629705
 C         -7.6815855954       -0.6121429968        0.6728933950
 C         -6.3351960463       -0.3540535683        0.8748481109
 H         -5.9851040347        0.3665597628        1.5952332835
 H         -8.4211797128       -0.0741397688        1.2435864568
 H         -9.1193604149       -1.7613214413       -0.4150649769
 H         -7.4285621323       -2.9989379782       -1.7164752307
 H         -5.0022769448       -2.5281678299       -1.3386593953
 H         -4.1371624744        0.6667308223       -1.3645995259
 H         -2.7837199815        1.8090365473       -2.8532383377
 H         -0.5421630419        2.7063498404       -3.3526058934
 H          1.2491421134        2.5891890425       -1.6600276911
 H          0.7460322952        0.8722868652        1.6381768895
 C          1.4031174521        2.8931217244        1.5139885299
 C          0.9286122604        4.2088483666        0.9820266018
 C          0.3018138074        3.6336188900        2.2140844093
 H          0.5104393534        4.0920654020        3.1688127782
 H         -0.6958450331        3.2285962984        2.1262251318
 H          1.5934388717        5.0531581896        1.0808972734
 H          0.3509621570        4.2149938262        0.0716633345
 H          2.3746653443        2.8961358601        1.9979096410
