  62
        -98.94340949
 C         -1.8641667206       -0.2634662708       -0.2341117794
 C         -2.9733984404       -0.4694429515       -1.0878759595
 C         -4.2832388605       -0.5588525408       -0.4294000297
 C         -4.3525666409       -0.4613086896        0.9111610002
 C         -5.6254712110       -0.4850116488        1.7059288899
 C         -6.1823129810        0.9314156014        1.9065750085
 C         -6.2614187507        1.7522767802        0.6194174277
 H         -6.6957341507        2.7205836005        0.8773489167
 H         -5.2493584206        1.9408148198        0.2541539578
 C         -7.0893207005        1.1024507992       -0.4980305519
 H         -7.7329323506        0.3275202796       -0.0800683213
 H         -7.7398489803        1.8608686988       -0.9387087227
 C         -6.2597501602        0.5104552681       -1.6389095312
 H         -5.5477790201        1.2568954578       -2.0000807917
 H         -6.9358995300        0.2768146974       -2.4657094211
 C         -5.4859796204       -0.7712240916       -1.3052464198
 H         -6.1625233305       -1.5043720412       -0.8611203793
 H         -5.1032948702       -1.1820231725       -2.2443364494
 H         -7.1760251211        0.8515483918        2.3510918583
 H         -5.5361087012        1.4604616420        2.6106726781
 H         -6.3574676010       -1.1047327493        1.1915772003
 H         -5.4129491113       -0.9240171780        2.6821419803
 O         -3.2624794010       -0.2818981689        1.6998728203
 C         -1.9925390309       -0.1717371495        1.1520835505
 O         -1.0848121011       -0.0015656188        1.9867401705
 H          2.1853488694        0.0184434691       -0.1707502787
 C          1.7737598693       -0.9658547807       -0.0209456079
 C          0.4404179894       -1.2180180009       -0.3057659980
 C         -0.0469674507       -2.5086163407       -0.1152931570
 C          0.7699750091       -3.5092992503        0.3723365041
 C          2.0993423291       -3.2521482001        0.6578924642
 C          2.6025640392       -1.9745135103        0.4523342932
 N          3.9453973991       -1.6784058201        0.7315065332
 S          4.8233269094       -0.7434477211       -0.3438452574
 O          4.3711016597       -0.9283605623       -1.7028296674
 O          6.2056558893       -1.0873048509       -0.0836783168
 C          4.5520007994        0.9382578394        0.1726634310
 C          4.4832255796        1.9268994585       -0.7887113699
 C          4.3285024896        3.2447621089       -0.3870013112
 C          4.2453649493        3.5489010801        0.9628610185
 C          4.3172187390        2.5440027510        1.9158431094
 C          4.4769845391        1.2253010606        1.5212161807
 H          4.5336339689        0.4209491612        2.2353937314
 H          4.2488155288        2.7838991019        2.9647619492
 H          4.1222882493        4.5744397104        1.2737187876
 H          4.2721801198        4.0269276882       -1.1275466319
 H          4.5395743199        1.6447353675       -1.8279551597
 H          4.4887145490       -2.4584442398        1.0719749241
 H          2.7409963490       -4.0336420398        1.0360840651
 H          0.3718759791       -4.5014982802        0.5239986550
 H         -1.0824308007       -2.7164907609       -0.3485879070
 C         -0.4799091304       -0.1497447014       -0.8433777492
 H         -0.6172047202       -0.3351786023       -1.9200327391
 C          0.0558099296        1.2551191788       -0.6568277804
 C          0.9722390498        1.8647091578       -1.6737638607
 C         -0.4430862902        2.3427998680       -1.5587926315
 H         -0.6257221102        3.3198063784       -1.1375140424
 H         -1.1439802300        2.0615643273       -2.3313553414
 H          1.7611606698        2.5149493081       -1.3269637311
 H          1.2411423900        1.2639280270       -2.5298921601
 H          0.2134601493        1.5016406397        0.3873726694
 O         -2.8714608701       -0.5795736626       -2.3402054994
