  62
        -98.93323671
 C         -2.4005567303       -1.0757790698        0.3267156595
 C         -2.5616101307        0.1724928503        0.9788317894
 C         -3.8164709407        0.9119911701        0.7430801690
 C         -4.7451470704        0.3626874799       -0.0613268312
 C         -6.0834409704        0.9192914697       -0.4704023615
 C         -5.9695134603        2.0316427796       -1.5238574716
 C         -4.8860048205        3.0693284498       -1.2442780614
 H         -3.9178821104        2.5690919199       -1.1784637011
 H         -4.8435099004        3.7446951797       -2.1028802414
 C         -5.1053391309        3.9174629499        0.0063457885
 H         -4.3231445810        4.6808555900        0.0202428086
 H         -6.0672109710        4.4290278097       -0.0713496618
 C         -5.0574602711        3.1692628000        1.3408639586
 H         -5.9870123811        2.6393531398        1.5306750684
 H         -4.9612590714        3.9196662000        2.1309738785
 C         -3.8737404611        2.2194520701        1.4957727089
 H         -3.7760525413        1.9512742202        2.5548394990
 H         -2.9474163411        2.7526461102        1.2510907591
 H         -6.9383224403        2.5269407995       -1.6074950819
 H         -5.7437696800        1.5650747096       -2.4857417615
 H         -6.6466768902        0.0887162296       -0.9014776216
 H         -6.6253497907        1.2688584597        0.4032770483
 O         -4.5495869201       -0.8402870301       -0.6684202510
 C         -3.3963160900       -1.5858627699       -0.5061962807
 O         -3.4050854397       -2.6547620900       -1.1480476206
 O         -1.6867671609        0.6597797504        1.7477080796
 C         -1.1115357703       -1.8290124496        0.6024618399
 C         -0.0901675800       -1.6559230995       -0.4970935999
 C         -0.3585589697       -2.0345202096       -1.8082700499
 C          0.6054278906       -1.8845776796       -2.7882728197
 C          1.8501102004       -1.3642345394       -2.4818931894
 C          2.1336703900       -0.9946525592       -1.1716689893
 C          1.1610566698       -1.1387175293       -0.1919207396
 H          1.3835986395       -0.8280337592        0.8177718305
 N          3.4133529799       -0.5227214190       -0.8337575591
 S          3.6141573394        0.5990626411        0.4092418809
 O          3.4302024392       -0.0671047089        1.6736584409
 O          2.7978267193        1.7681163909        0.1668930106
 C          5.3401072394        0.9877884513        0.1864211313
 C          6.2804178994        0.0906699015        0.6573213116
 C          7.6246862795        0.3663133816        0.4654770419
 C          8.0049185395        1.5280596516       -0.1902536981
 C          7.0503278795        2.4201574115       -0.6547270684
 C          5.7036424994        2.1494621013       -0.4675952187
 H          4.9270811794        2.8173733312       -0.8043602889
 H          7.3489542395        3.3241036015       -1.1607059583
 H          9.0519585295        1.7408768718       -0.3374575678
 H          8.3696681195       -0.3235867783        0.8277271422
 H          5.9377209494       -0.7935217986        1.1688381916
 H          3.9573483601       -0.2633011090       -1.6457551389
 H          2.6001947206       -1.2501413893       -3.2497719092
 H          0.3836682209       -2.1751558397       -3.8041897597
 H         -1.3288097795       -2.4398159998       -2.0503180301
 H         -0.6974790506       -1.3633195594        1.5080126500
 C         -1.3243314802       -3.3057345196        0.8796753999
 C         -0.2734024702       -4.0569807894        1.6380037303
 C         -1.5939184304       -3.7588864795        2.2813482999
 H         -2.2902535404       -4.5694765796        2.4349574398
 H         -1.6260608707       -3.0029542095        3.0528668099
 H         -0.0599141600       -5.0747753794        1.3501251104
 H          0.5911214196       -3.5031393592        1.9734997804
 H         -1.8388176399       -3.8221662297        0.0799543499
