  62
        -98.93827509
 C          1.6696279857        1.6283943362        0.1301366597
 C          1.5173761676        0.2797042668       -0.2724214695
 C          2.6076555423       -0.6316400364        0.1129580848
 C          3.6521421488       -0.1509987961        0.8113413194
 C          4.8731111459       -0.9337000783        1.2038841606
 C          5.8063114198       -1.1011825183       -0.0123655224
 C          5.9694570724       -2.5450618010       -0.4879118489
 H          6.4648892772       -2.5146028262       -1.4607821661
 H          6.6317981621       -3.0729215493        0.2015686739
 C          4.6768193683       -3.3574083927       -0.6110499079
 H          4.9163884457       -4.2472451451       -1.1971329290
 H          4.3693700726       -3.7079909504        0.3752085689
 C          3.4922522616       -2.6375181305       -1.2685021681
 H          3.8432727411       -1.8363662416       -1.9191292068
 H          2.9696575879       -3.3559099184       -1.9031735360
 C          2.4548901561       -2.0749940685       -0.2788799995
 H          2.4364053996       -2.6949261449        0.6214049079
 H          1.4644956499       -2.1293418663       -0.7397068040
 H          5.4176614788       -0.4891718560       -0.8290097538
 H          6.7947218535       -0.7079009493        0.2303297489
 H          4.5778228853       -1.9042161981        1.5963397692
 H          5.3761487498       -0.3759778720        1.9941058525
 O          3.7559675543        1.1513994467        1.1856511008
 C          2.7698830707        2.0688249824        0.8653278456
 O          2.9830893076        3.2241647909        1.2853303328
 O          0.5273375148       -0.1460802464       -0.9217226087
 C          0.5928062159        2.6479799003       -0.2026113771
 C         -0.7027993125        2.1798360609        0.4121321355
 C         -0.7908501953        2.1064374288        1.8000161450
 C         -1.9302758070        1.6208404601        2.4118558828
 C         -3.0034622772        1.1863431818        1.6527196820
 C         -2.9222906653        1.2498164676        0.2688693575
 C         -1.7833757757        1.7575947896       -0.3436460504
 H         -1.7374778540        1.7967232463       -1.4201901375
 N         -4.0009062186        0.7971939215       -0.5144651572
 S         -4.6070191733       -0.7335028138       -0.2082132775
 O         -5.3578533628       -1.0810263363       -1.3940444709
 O         -5.3516528946       -0.7101777451        1.0262970305
 C         -3.1870839553       -1.7986954662       -0.0445377036
 C         -2.5586455470       -2.2309711656       -1.1948732219
 C         -1.4421301745       -3.0418096010       -1.0848364774
 C         -0.9696847554       -3.3972578183        0.1686249561
 C         -1.6064605105       -2.9476707749        1.3142435277
 C         -2.7273916763       -2.1402837963        1.2105652342
 H         -3.2558506996       -1.7799500916        2.0778249268
 H         -1.2325520860       -3.2218948507        2.2878680238
 H         -0.0993966183       -4.0291204924        0.2526249725
 H         -0.9409967686       -3.3879980299       -1.9745776495
 H         -2.9599675825       -1.9411469672       -2.1527502667
 H         -3.8457308078        0.9105205429       -1.5061351404
 H         -3.8971232340        0.7951367506        2.1111315600
 H         -1.9840815958        1.5741406113        3.4891185856
 H          0.0558244984        2.4282257204        2.3916403550
 H          0.8929584624        3.5823672925        0.2910590480
 C          0.5241473882        2.8845762529       -1.6962548411
 C         -0.1086194887        4.1356565831       -2.2252248943
 C          1.3772095291        3.9559458812       -2.3028418224
 H          1.8255606470        3.7732214057       -3.2679955164
 H          2.0005781855        4.5332983304       -1.6356346161
 H         -0.6796399519        4.0809428208       -3.1398120658
 H         -0.4970948153        4.8404899131       -1.5058091971
 H          0.4018759863        1.9694915014       -2.2638345489
