  62
        -98.94106373
 C         -1.7416059883       -0.9753523010        0.2962617237
 C         -2.1515234312        0.3725834839        0.4479527376
 C         -3.5998113272        0.5823185374        0.6008891953
 C         -4.4341886566       -0.4705880287        0.6492551090
 C         -5.9282222306       -0.4140672043        0.8177803137
 C         -6.6945711679       -0.1782389293       -0.4909520313
 C         -6.5912199731        1.2375439467       -1.0597795004
 H         -7.3430217551        1.3220850472       -1.8470031575
 H         -6.8495512797        1.9594501099       -0.2844053522
 C         -5.2177577493        1.5848053590       -1.6512505531
 H         -4.6552122878        0.6658649983       -1.8321318479
 H         -5.3504299473        2.0728137444       -2.6195101047
 C         -4.3726699585        2.5196869821       -0.7856086734
 H         -3.4099645081        2.6705103848       -1.2816030486
 H         -4.8646946343        3.4918237321       -0.7078396279
 C         -4.0997781518        1.9950216176        0.6302621796
 H         -5.0009531647        2.0685929037        1.2386772714
 H         -3.3197094758        2.6136141445        1.0812316875
 H         -6.3438683337       -0.8963856076       -1.2358248377
 H         -7.7478583349       -0.3913636993       -0.2945737383
 H         -6.2316095293       -1.3810077935        1.2248936184
 H         -6.1870387877        0.3628696881        1.5376393488
 O         -3.9923400618       -1.7539647476        0.5702191354
 C         -2.6494305319       -2.0352985878        0.3781781174
 O         -2.3894203661       -3.2530754096        0.3113802433
 O         -1.3699706102        1.3577232597        0.4598904084
 C         -0.2862340317       -1.3550876350        0.0829487829
 C          0.6071153889       -0.5767954837        1.0159395934
 C          0.5000970434       -0.8014840452        2.3863193263
 C          1.2964002086       -0.1121207658        3.2794607604
 C          2.2341846851        0.7986884693        2.8244843520
 C          2.3470207038        1.0313780838        1.4596266720
 C          1.5363924446        0.3461092868        0.5644889028
 H          1.6100906981        0.5830590414       -0.4829199092
 N          3.2852902709        1.9476212363        0.9665013239
 S          4.0339610911        1.6832647404       -0.4986758035
 O          5.2833878510        2.4082813660       -0.3986801083
 O          3.1776519436        2.0656981840       -1.5926592143
 C          4.3543418478       -0.0721135921       -0.5615334634
 C          3.9149442922       -0.8066707479       -1.6436135907
 C          4.1643205642       -2.1695937174       -1.6772615289
 C          4.8442877475       -2.7721226020       -0.6305357445
 C          5.2861442208       -2.0195785315        0.4469091290
 C          5.0417538114       -0.6565520038        0.4838146064
 H          5.3795948182       -0.0447876180        1.3041937521
 H          5.8175684036       -2.4911833112        1.2576690602
 H          5.0315562175       -3.8339794531       -0.6562001093
 H          3.8235982253       -2.7557724360       -2.5161035201
 H          3.3843462795       -0.2986292438       -2.4333051932
 H          3.9064797026        2.3470635013        1.6533951836
 H          2.8598582256        1.3372250398        3.5198130116
 H          1.1939364745       -0.2895692766        4.3394536159
 H         -0.2300391558       -1.5164366017        2.7412881959
 H         -0.2258282633       -2.4176558444        0.3709429344
 C          0.1671125194       -1.2727884469       -1.3671034946
 C         -0.7833177041       -1.5341714707       -2.4958520354
 C         -0.2458508488       -0.1538293067       -2.2731189062
 H          0.4808756096        0.2413400223       -2.9687264158
 H         -0.9051877679        0.5988216299       -1.8700092236
 H         -0.4282594837       -2.0960614374       -3.3464851189
 H         -1.8166511936       -1.7276399722       -2.2463078396
 H          1.1772422938       -1.6514713936       -1.4915671300
