  62
        -98.94466041
 C         -2.2868396402       -1.3846504401        0.0478995409
 C         -2.0226678200       -0.4224410405       -0.9567041494
 C         -2.9044670800        0.7521957495       -0.9597759401
 C         -3.8908882901        0.8571785799       -0.0518417503
 C         -4.8715005001        1.9922976200        0.0642492591
 C         -4.3385274802        3.1961603403        0.8538184487
 C         -3.2804894301        4.0333189600        0.1334791686
 H         -3.6474395999        4.3065773996       -0.8563371616
 H         -3.1631458602        4.9571245302        0.7033393682
 C         -1.9096231201        3.3533127899        0.0087798091
 H         -1.1254044201        4.0631768500        0.2786704189
 H         -1.8464632502        2.5246029302        0.7177455394
 C         -1.5845410999        2.8310562293       -1.3905047107
 H         -1.4984921897        3.6696573690       -2.0851495010
 H         -0.6194676799        2.3203007493       -1.3469489603
 C         -2.6134218698        1.8402545391       -1.9485636604
 H         -3.5300085497        2.3601818690       -2.2257800208
 H         -2.1911932396        1.3736602588       -2.8419961102
 H         -5.1914336803        3.8413385204        1.0770713983
 H         -3.9349329904        2.8387417007        1.8039744489
 H         -5.1799260499        2.3148350796       -0.9306021911
 H         -5.7448743202        1.5967764502        0.5872759991
 O         -4.1232414403       -0.0984980797        0.8870156401
 C         -3.3194552404       -1.2216768997        0.9753011207
 O         -3.6239612005       -1.9966557393        1.9042238109
 O         -1.1085180998       -0.5257087609       -1.8160621092
 C         -1.4295240103       -2.6321774200        0.1945289816
 C         -0.0568670703       -2.2141388499        0.6637266416
 C          0.1570492894       -1.9939854993        2.0218404716
 C          1.3915834294       -1.5768910392        2.4821780916
 C          2.4342815095       -1.3558761595        1.5986232617
 C          2.2229333498       -1.5461636701        0.2398120718
 C          0.9860861798       -1.9848621703       -0.2192612383
 H          0.8323929300       -2.1229169107       -1.2772140482
 N          3.2612829999       -1.3219128905       -0.6754384181
 S          4.3903612899       -0.1166490604       -0.4433625384
 O          5.0057818601        0.0625179490       -1.7387506584
 O          5.2764309797       -0.4885333200        0.6323108319
 C          3.4902431899        1.3571008398        0.0045423908
 C          2.7616639701        1.9991222694       -0.9772265196
 C          2.0702303300        3.1546034696       -0.6520148301
 C          2.1067089698        3.6382102701        0.6470039897
 C          2.8406948996        2.9816745005        1.6220409701
 C          3.5447965896        1.8327198003        1.2989782907
 H          4.1444765195        1.3070186906        2.0237391310
 H          2.8710975594        3.3627958809        2.6301101999
 H          1.5655936898        4.5368863402        0.8981595492
 H          1.5075219202        3.6740207393       -1.4109993605
 H          2.7588184802        1.5986565790       -1.9783052794
 H          2.9781725501       -1.3859034909       -1.6415361981
 H          3.4083185295       -1.0537360694        1.9454244218
 H          1.5475134292       -1.4241221487        3.5393403816
 H         -0.6615427107       -2.1522311590        2.7104795115
 H         -1.8938554104       -3.2225648397        0.9954515917
 C         -1.4157413000       -3.4623690305       -1.0722693281
 C         -0.9044925401       -4.8696529305       -1.0177803274
 C         -2.3686438500       -4.6103917006       -1.2039153078
 H         -2.8094145599       -4.8061610410       -2.1699971178
 H         -3.0325961402       -4.8069693202       -0.3746248578
 H         -0.3382265399       -5.2472296709       -1.8555110372
 H         -0.5730606303       -5.2418607802       -0.0601063872
 H         -1.2161007899       -2.8849159209       -1.9659287883
