  62
        -98.94188668
 C         -2.7744161241       -0.2689538115       -0.2551581951
 C         -2.0306941425        0.5538437400       -1.1358717263
 C         -2.0217931249        1.9905765733       -0.8243474565
 C         -2.7189241229        2.4489399424        0.2294574927
 C         -2.7565912630        3.8786788622        0.6832045817
 C         -1.6749400832        4.1641165174        1.7339831723
 C         -0.2780199307        3.6795447234        1.3435950151
 H         -0.2593081465        2.5865246553        1.3226351907
 H          0.4048982487        3.9874199882        2.1390075969
 C          0.2330100225        4.2143203414       -0.0012065472
 H          1.2741608211        4.5197117968        0.1219447944
 H         -0.3352084683        5.0994047038       -0.2913189256
 C          0.1998568160        3.1881125989       -1.1354645782
 H          0.6455674865        2.2541076997       -0.7813564242
 H          0.8152115457        3.5658318059       -1.9569130939
 C         -1.1901484882        2.8776683216       -1.7069688632
 H         -1.0541440140        2.3282659641       -2.6429952238
 H         -1.7155739506        3.8089245591       -1.9281231755
 H         -1.9577110240        3.6696213618        2.6663251572
 H         -1.6485097016        5.2405561042        1.9148228266
 H         -2.6218081643        4.5304036944       -0.1778371154
 H         -3.7361311599        4.0717468232        1.1243200163
 O         -3.4548605296        1.6377073546        1.0313789910
 C         -3.4722922261        0.2696527196        0.8311038473
 O         -4.1524664133       -0.3580535905        1.6681851857
 H         -0.2690671194       -1.4169223810       -1.1607760142
 C         -0.3195416203       -2.0185069609       -0.2653969113
 C         -1.5586073310       -2.3422246695        0.2685529312
 C         -1.5983018560       -3.1033726294        1.4305929807
 C         -0.4277148852       -3.5109917896        2.0482565832
 C          0.8053493192       -3.1495599347        1.5339417968
 C          0.8510393974       -2.3940556100        0.3712135626
 N          2.1061949604       -1.9404204422       -0.1223878628
 S          2.6116781080       -0.6034421313        0.7956895399
 O          2.9406571436       -1.0778987275        2.1164197161
 O          1.6253862554        0.4528927388        0.7275703239
 C          4.0970673528       -0.1239559628       -0.0648945170
 C          4.0511557315        0.9206360426       -0.9675040350
 C          5.2046769862        1.2614918590       -1.6565730150
 C          6.3754572827        0.5523366065       -1.4351531529
 C          6.4048758630       -0.4951734094       -0.5263002260
 C          5.2557989331       -0.8400033399        0.1668837668
 H          5.2312733318       -1.6398660425        0.8880096050
 H          7.3177942823       -1.0427291822       -0.3564058536
 H          7.2710132928        0.8195055008       -1.9735580902
 H          5.1838041439        2.0765371050       -2.3620436225
 H          3.1203387110        1.4484469467       -1.1043996928
 H          2.0011726694       -1.6153942070       -1.0774094710
 H          1.7236605562       -3.4158639631        2.0310332338
 H         -0.4767247248       -4.0980082487        2.9530120791
 H         -2.5558399490       -3.3492142115        1.8669632599
 C         -2.8167304412       -1.7888769739       -0.3576221594
 H         -3.6685943024       -2.1073643241        0.2578227859
 C         -3.0225135033       -2.3044301120       -1.7674176628
 C         -3.5495561212       -3.6936464929       -1.9588862232
 C         -4.4165368730       -2.5125617430       -2.2740983475
 H         -4.6267556080       -2.2848615693       -3.3081922787
 H         -5.2312950865       -2.2833062963       -1.6025386182
 H         -3.7786694636       -4.2677445738       -1.0738166029
 H         -3.1639386140       -4.2816393304       -2.7773885628
 H         -2.2881446373       -1.9406252179       -2.4731163597
 O         -1.3948147537        0.1375092185       -2.1427138344
