  62
        -98.94544462
 C          1.6897685287        0.8864610810        0.1317971048
 C          2.7262529535        0.5930382545        1.0491498951
 C          3.4169897550       -0.6861672327        0.8479231783
 C          3.0194830581       -1.5117161424       -0.1374437233
 C          3.6060314261       -2.8612961992       -0.4517760250
 C          4.8594166182       -2.8060131599       -1.3360662443
 C          6.1230803037       -2.2944689116       -0.6432741510
 H          6.2824264445       -2.8537735058        0.2792646073
 H          6.9626154534       -2.5143303386       -1.3057732899
 C          6.1147274164       -0.7894402011       -0.3408011925
 H          5.3424152544       -0.3014860266       -0.9398059388
 H          7.0716240560       -0.3533410743       -0.6361939649
 C          5.8935695915       -0.4395933818        1.1308334422
 H          5.8679264610        0.6491673390        1.2242988475
 H          6.7322170382       -0.8080641438        1.7258188634
 C          4.5928250575       -0.9967955506        1.7238810854
 H          4.6804104878       -2.0721604844        1.8790110783
 H          4.4232896306       -0.5166152578        2.6910598169
 H          4.6448693502       -2.1836961437       -2.2078299577
 H          5.0516284355       -3.8210027577       -1.6914701154
 H          2.8335184561       -3.4203147504       -0.9845534546
 H          3.8366181487       -3.3868208459        0.4755739995
 O          1.9900897775       -1.2117130896       -0.9732130329
 C          1.3178618656        0.0023810252       -0.8816023452
 O          0.4239113386        0.1557170666       -1.7319880879
 O          3.0528070018        1.3591146292        1.9961072003
 C          0.9558160087        2.2078709347        0.2526780399
 C         -0.5315371922        2.0070298125        0.4129372502
 C         -1.4668667000        2.8843825286       -0.1229343237
 C         -2.8219137274        2.6689295564        0.0607043351
 C         -3.2767682378        1.5716127001        0.7680120009
 C         -2.3503685532        0.6839025463        1.3003758981
 C         -0.9933057931        0.9151616979        1.1358937447
 H         -0.2789943392        0.2216548588        1.5628983289
 N         -2.7994976021       -0.4571973029        1.9860280110
 S         -4.0698280952       -1.3165642968        1.3124407503
 O         -5.3184227651       -0.7537424215        1.7658012508
 O         -3.8352510750       -2.6939457370        1.6894254075
 C         -3.9369822083       -1.1136527205       -0.4562236276
 C         -5.0495279466       -0.7230818197       -1.1742514154
 C         -4.9371604125       -0.5523232785       -2.5445132139
 C         -3.7167681484       -0.7609425112       -3.1684092677
 C         -2.6084754460       -1.1541040681       -2.4342321013
 C         -2.7198302127       -1.3405175952       -1.0664100113
 H         -1.8646408011       -1.6406966362       -0.4815294503
 H         -1.6477770723       -1.2899147827       -2.9043397301
 H         -3.6242811052       -0.6132165992       -4.2328016050
 H         -5.7973276510       -0.2482695132       -3.1190206134
 H         -5.9732378814       -0.5535449755       -0.6449745399
 H         -2.0584439350       -1.0771082924        2.2782034172
 H         -4.3283697664        1.3865466813        0.9172639530
 H         -3.5347783896        3.3617772671       -0.3588741078
 H         -1.1333245947        3.7392695375       -0.6876532499
 H          1.3382757353        2.6698618171        1.1760025808
 C          1.3091746238        3.1033623281       -0.9188286454
 C          1.4254752473        4.5867344000       -0.7391936644
 C          2.6569847138        3.7579626707       -0.9423333894
 H          3.1814942334        3.8288528054       -1.8834405993
 H          3.3045703593        3.5858086472       -0.0947106192
 H          1.1055430404        5.2305309419       -1.5446662270
 H          1.2453310264        4.9883975173        0.2465872693
 H          0.9185456657        2.7283512678       -1.8582495960
