  62
        -98.94874039
 C          1.9011407590        1.0925043906       -0.2430056511
 C          0.9449330885        1.7104880598       -1.0818501710
 C          0.0434129982        2.6657182597       -0.4317194212
 C          0.1538616186        2.8909563903        0.8902435187
 C         -0.6845030416        3.8455025902        1.6967334686
 C         -2.0318069812        3.2594704098        2.1403999792
 C         -3.0817415415        3.1418992289        1.0349034796
 H         -4.0402459013        2.9559638486        1.5235690000
 H         -3.1625865821        4.0925412886        0.5062592793
 C         -2.8144607013        2.0088908686        0.0343766800
 H         -2.1072718208        1.2990787891        0.4717685701
 H         -3.7411444811        1.4593919981       -0.1458550495
 C         -2.2939359519        2.4655475982       -1.3284219203
 H         -3.0680313024        3.0421476277       -1.8398820703
 H         -2.0846531217        1.5745876481       -1.9263586400
 C         -1.0171683623        3.3132895488       -1.2707926911
 H         -0.6229760327        3.4057163286       -2.2860246413
 H         -1.2441955627        4.3093227689       -0.8910693214
 H         -1.8551885206        2.2725162101        2.5764838996
 H         -2.4282550013        3.9074809500        2.9259697591
 H         -0.1039295715        4.0905038509        2.5888510083
 H         -0.8523331622        4.7609160399        1.1279431383
 O          1.0858686991        2.2754449611        1.6644348887
 C          1.9526269293        1.3354438312        1.1296524588
 O          2.7217775899        0.8131447019        1.9606851888
 H          0.4304672800       -0.9328581301       -0.2941202598
 C          1.1983333404       -1.6338394296       -0.0017688697
 C          2.5309595102       -1.2946743091       -0.2026834703
 C          3.5116753207       -2.1991791884        0.1807246398
 C          3.1591236114       -3.3947407684        0.7842713504
 C          1.8341655217       -3.7063887589        1.0246744010
 C          0.8428625911       -2.8137636995        0.6285011809
 N         -0.5127165687       -3.1117139000        0.8312128314
 S         -1.6739966291       -1.9453176105        1.1278848413
 O         -1.0967326496       -0.6953627100        1.5644131006
 O         -2.6018350986       -2.5674731205        2.0503142219
 C         -2.5120067497       -1.7234799315       -0.4317372985
 C         -1.8760648500       -1.9663545517       -1.6319653386
 C         -2.5700175705       -1.7493643825       -2.8131469985
 C         -3.8806469807       -1.3009695331       -2.7777080983
 C         -4.5109793404       -1.0741258029       -1.5640880882
 C         -3.8218214599       -1.2858485821       -0.3810281583
 H         -4.2736570697       -1.1290524219        0.5853265718
 H         -5.5329957405       -0.7317644434       -1.5357154380
 H         -4.4132498810       -1.1308260437       -3.6999283482
 H         -2.0791690707       -1.9293839527       -3.7562104586
 H         -0.8576983998       -2.3186205412       -1.6421972588
 H         -0.6911982381       -3.9450786399        1.3709939819
 H          1.5637185722       -4.6280738588        1.5170263814
 H          3.9298465619       -4.0875884979        1.0864077305
 H          4.5511439705       -1.9636800980        0.0214164394
 C          2.8255616193        0.0441069908       -0.8343901509
 H          2.5588140290       -0.0113464298       -1.9009967608
 C          4.2748961692        0.4642228915       -0.7158342716
 C          5.2766328291        0.0238821716       -1.7403096617
 C          4.8237327284        1.4514664914       -1.7006000421
 H          5.5116011682        2.2043823118       -1.3463833427
 H          4.1565378880        1.8001367407       -2.4753260621
 H          6.2809974993       -0.2021757478       -1.4152254019
 H          4.9238638891       -0.5955808889       -2.5508812313
 H          4.5976451695        0.5531179921        0.3154143783
 O          0.8503050982        1.4728937593       -2.3172684009
