  62
        -98.94769104
 C          0.8691532597        1.5001262331        0.4897052891
 C          1.0513343201        0.5316151978       -0.5264183335
 C          1.9752364700       -0.5610602464       -0.1990601800
 C          2.4738478907       -0.6634621864        1.0460381451
 C          3.3831412364       -1.7525920901        1.5474042811
 C          4.8710558189       -1.4999670827        1.2671618415
 C          5.2896170179       -1.6552471413       -0.1953116210
 H          6.3811899763       -1.6588948800       -0.2168302981
 H          4.9528777069       -2.6235537855       -0.5663170225
 C          4.7801114674       -0.5407973478       -1.1198341654
 H          5.5964272058       -0.1974960764       -1.7592734760
 H          4.4641806035        0.3147309399       -0.5183587394
 C          3.6288566395       -0.9543135677       -2.0367690473
 H          3.3273063245       -0.0809802378       -2.6201986387
 H          3.9743786202       -1.7219693841       -2.7322391819
 C          2.3893507483       -1.4852986298       -1.3029780864
 H          1.5631962681       -1.5370693943       -2.0148537816
 H          2.5822566902       -2.4837811205       -0.9127420742
 H          5.4417935791       -2.2135379849        1.8659909047
 H          5.1254336620       -0.4962302383        1.6157918901
 H          3.2386904991       -1.8036758185        2.6290527292
 H          3.0852938344       -2.7069825026        1.1125819353
 O          2.1835018415        0.2308359758        2.0298512174
 C          1.4184553055        1.3546577578        1.7624123916
 O          1.2952074107        2.1368406811        2.7290301786
 H         -1.3757871645        0.6389532857        1.1660022783
 C         -1.9574460093        1.2171248631        0.4633898397
 C         -1.3964577943        2.3340898777       -0.1402949376
 C         -2.1741881510        3.0712671404       -1.0258923264
 C         -3.4759545504        2.6900904081       -1.2998559589
 C         -4.0245830083        1.5651877862       -0.7115516477
 C         -3.2535977772        0.8218478155        0.1760342332
 N         -3.7771345187       -0.3253512531        0.7925418032
 S         -2.8302252268       -1.6336669704        1.1844748831
 O         -3.7884556161       -2.6758306538        1.4947611548
 O         -1.9106090730       -1.3052060296        2.2470554515
 C         -1.9235978628       -2.1429075901       -0.2682225584
 C         -2.2709628437       -1.7265213938       -1.5362027857
 C         -1.5857076580       -2.2482685019       -2.6228564741
 C         -0.5866776974       -3.1869122375       -2.4285199766
 C         -0.2510450396       -3.5986274930       -1.1477750912
 C         -0.9195290491       -3.0677613688       -0.0582010700
 H         -0.6842996097       -3.3500429457        0.9560877630
 H          0.5275858377       -4.3287576467       -0.9956801654
 H         -0.0625729410       -3.5969396323       -3.2775656832
 H         -1.8371935763       -1.9169203575       -3.6173407760
 H         -3.0504037476       -0.9965560133       -1.6788856622
 H         -4.6953549683       -0.6078551641        0.4830299524
 H         -5.0372790733        1.2631909666       -0.9313724087
 H         -4.0699898653        3.2725970036       -1.9872880805
 H         -1.7599606496        3.9457173277       -1.5003473325
 C          0.0159830775        2.7243596615        0.2221391241
 H         -0.0227692994        3.2811537707        1.1709994997
 C          0.6768217929        3.5946445526       -0.8296078346
 C          0.5715432904        5.0877402920       -0.7621976060
 C          1.8704007931        4.4130099379       -0.4416818816
 H          2.6874571732        4.5004013400       -1.1419654807
 H          2.1842671314        4.3686745175        0.5916203421
 H          0.0113560061        5.5150261401        0.0559646797
 H          0.5002454861        5.6422839130       -1.6858151640
 H          0.6894730028        3.1242058388       -1.8059874112
 O          0.4809181136        0.5777224158       -1.6466096645
