  62
        -98.94360054
 C         -0.6697181105       -1.5719034525        0.1718752424
 C         -1.3891780301       -0.6367022649        0.9466560408
 C         -2.3427339502        0.2245062215        0.2256782010
 C         -2.4505145405        0.1114374672       -1.1117405123
 C         -3.2552864550        0.9128328968       -2.1145394165
 C         -4.3866256991        1.8301807370       -1.6574384980
 C         -5.5972104530        1.1047403652       -1.0702913818
 H         -6.2904192956        1.8547768319       -0.6835451996
 H         -6.1032478149        0.5677172162       -1.8764013870
 C         -5.2872185715        0.0958685565        0.0326093831
 H         -4.6680262534       -0.7081602313       -0.3704958383
 H         -6.2322047521       -0.3532879183        0.3496265545
 C         -4.6079539184        0.6723105343        1.2728980843
 H         -4.5911077090       -0.1135084250        2.0325555557
 H         -5.2004516836        1.5021307132        1.6627391954
 C         -3.1603963033        1.1555451056        1.0750809545
 H         -3.1338059434        2.1675492142        0.6765267811
 H         -2.6758135123        1.1703057303        2.0556889200
 H         -4.0099180002        2.5735397043       -0.9609389222
 H         -4.7236531267        2.3728218905       -2.5449528876
 H         -2.5172018674        1.5117524637       -2.6617791053
 H         -3.6502654093        0.1854179111       -2.8311219458
 O         -1.7286783708       -0.8053996229       -1.8195727082
 C         -0.8219708876       -1.6549317207       -1.2113053671
 O         -0.2402062432       -2.4323545723       -1.9924482350
 O         -1.2309280540       -0.5093630045        2.1914120611
 C          0.3725162603       -2.4467456076        0.8451208445
 C          1.7201270507       -2.1525108295        0.2332611447
 C          2.6248453651       -3.1306058196       -0.1565154553
 C          3.8135366523       -2.7754536781       -0.7715618394
 C          4.1141681190       -1.4503543454       -1.0264579455
 C          3.2221042026       -0.4626977305       -0.6225278820
 C          2.0567055743       -0.8194150107        0.0325216588
 H          1.3685270995       -0.0487659527        0.3476784330
 N          3.4868141594        0.8951651385       -0.8514364581
 S          2.2268776377        1.9626129220       -1.1247984516
 O          1.1225145134        1.3523536355       -1.8281804111
 O          2.8572521280        3.0844480087       -1.7916649658
 C          1.7333418673        2.4790424895        0.5049252629
 C          2.7167512109        2.8437604306        1.4034722756
 C          2.3423683575        3.2748071618        2.6655638048
 C          0.9988406197        3.3404361042        3.0030392794
 C          0.0239728041        2.9782181678        2.0870449258
 C          0.3922540516        2.5416649640        0.8244133893
 H         -0.3350752547        2.2303717320        0.0895267501
 H         -1.0201846657        3.0238543758        2.3505649952
 H          0.7068074637        3.6740470904        3.9862641820
 H          3.0970786341        3.5567189514        3.3819396311
 H          3.7488664166        2.7817110108        1.1018455510
 H          4.2840190501        1.0856295318       -1.4406959806
 H          5.0248614736       -1.1788977309       -1.5382076222
 H          4.5062178447       -3.5447612782       -1.0776648232
 H          2.3933634247       -4.1708019090        0.0039432139
 H          0.3886161485       -2.1291460644        1.8984364780
 C         -0.0200347071       -3.9071176478        0.7786131479
 C          0.4280866827       -4.8602830399        1.8451619294
 C         -1.0072724113       -4.4367519039        1.7737367146
 H         -1.7429840567       -5.1524292748        1.4387487744
 H         -1.3767836764       -3.7470599849        2.5184075891
 H          0.6767143489       -5.8717045785        1.5610958515
 H          1.0329947831       -4.4643549275        2.6466216567
 H         -0.0914692261       -4.2706675972       -0.2405484765
