  62
        -98.94517793
 C         -2.0334919462       -0.9561856178        0.0331231257
 C         -2.7513185564       -0.2573243660        1.0318716786
 C         -3.3772533807        1.0001688641        0.6094574816
 C         -3.1911819785        1.4482926739       -0.6456961351
 C         -3.7306708901        2.7323783821       -1.2152807800
 C         -5.1728764712        2.6311769308       -1.7308957243
 C         -6.2456288444        2.5312817978       -0.6456992036
 H         -6.1104826953        3.3411434006        0.0718902659
 H         -7.2098374534        2.6856594280       -1.1338422332
 C         -6.2755542194        1.1856341818        0.0922961022
 H         -7.3072617384        0.8357011164        0.1698442286
 H         -5.7269922640        0.4401591710       -0.4878969288
 C         -5.7043280102        1.2269678685        1.5096112522
 H         -6.3243471027        1.8714817488        2.1365004596
 H         -5.7422436755        0.2162636711        1.9237887443
 C         -4.2528317788        1.7180075759        1.5920454931
 H         -3.8735296234        1.5029251247        2.5942702785
 H         -4.2087047512        2.7943848696        1.4261621689
 H         -5.3687660603        3.5267214642       -2.3249592950
 H         -5.2450545562        1.7681493476       -2.3966661386
 H         -3.6644480477        3.5217925957       -0.4657280676
 H         -3.0809141851        2.9954227202       -2.0529900517
 O         -2.4486121536        0.7728739253       -1.5626020599
 C         -1.8637917148       -0.4474913707       -1.2552857689
 O         -1.2344184615       -0.9653927168       -2.1962801452
 O         -2.8545249176       -0.6598522120        2.2230247891
 C         -1.3608859914       -2.2697290653        0.3937555452
 C          0.1324702345       -2.1073525886        0.2538892774
 C          0.9332547104       -2.9289162409       -0.5269817143
 C          2.2906394998       -2.6799468770       -0.6411605860
 C          2.8770693446       -1.6164110376        0.0197744247
 C          2.0859553544       -0.7944495051        0.8120852918
 C          0.7303387992       -1.0486416301        0.9283121231
 H          0.1141483625       -0.4004574469        1.5407690375
 N          2.6791880468        0.3001340927        1.4843967121
 S          3.1826398115        1.5519253094        0.4728187069
 O          3.2618847131        2.7199150924        1.3241251291
 O          2.3324003897        1.6651006680       -0.6916494316
 C          4.8250155526        1.0643376751       -0.0073847866
 C          5.0962575284        0.7761647596       -1.3303599330
 C          6.3813701540        0.3919549274       -1.6810518701
 C          7.3651237559        0.3031345410       -0.7078073969
 C          7.0760176325        0.5980110398        0.6165008344
 C          5.7939766361        0.9836903903        0.9739512150
 H          5.5255480527        1.2273301934        1.9882800726
 H          7.8440019107        0.5278963141        1.3697721897
 H          8.3635366656        0.0026320571       -0.9838495121
 H          6.6074934355        0.1623880612       -2.7099214304
 H          4.2960501824        0.8529920635       -2.0492929122
 H          2.0742845928        0.6893036963        2.1954598751
 H          3.9328294756       -1.4190616220       -0.0691421252
 H          2.8997176343       -3.3226570853       -1.2581092514
 H          0.4927820362       -3.7561648503       -1.0584370156
 H         -1.5898926157       -2.4318333074        1.4575632049
 C         -1.9352032875       -3.4154045735       -0.4105462766
 C         -1.8713439807       -4.8133916101        0.1259691026
 C         -3.1819724382       -4.0890359765        0.0761969460
 H         -3.9177585062       -4.3983799683       -0.6508515848
 H         -3.6081764421       -3.7344957410        1.0034446730
 H         -1.7089327176       -5.6246934980       -0.5671084681
 H         -1.4083596562       -4.9566074946        1.0904338253
 H         -1.8312096949       -3.2683284610       -1.4794513870
