  62
        -98.94386144
 C         -2.1595276898       -0.7212225392        0.5256908994
 C         -2.5114422797       -0.1655787689       -0.7283929105
 C         -3.4545199295        0.9592755512       -0.6814370503
 C         -3.8808658194        1.4273067011        0.5056462998
 C         -4.8265434293        2.5786009312        0.7160872100
 C         -6.3086880493        2.1930036814        0.6124261800
 C         -6.8066272994        1.8967926918       -0.8027940300
 H         -7.8966320494        1.8562884219       -0.7557248900
 H         -6.5397818393        2.7242578218       -1.4608787399
 C         -6.2891510996        0.5780964418       -1.3942455303
 H         -5.9033374497       -0.0546375184       -0.5915684004
 H         -7.1175730897        0.0373593920       -1.8572717603
 C         -5.2046920496        0.7426795618       -2.4591621603
 H         -4.8870838098       -0.2522040982       -2.7810482704
 H         -5.6186413896        1.2614011720       -3.3265610602
 C         -3.9612790295        1.5048308415       -1.9822719402
 H         -4.1834500693        2.5677167115       -1.8898882800
 H         -3.1713200695        1.3740868515       -2.7258761702
 H         -6.4889886894        1.3256638714        1.2517883799
 H         -6.8903300792        3.0268187315        1.0123255202
 H         -4.6044299792        3.3717239813        0.0015541101
 H         -4.6383986992        2.9555185610        1.7238359601
 O         -3.4695088195        0.9021190208        1.6919361897
 C         -2.6197327896       -0.1923542793        1.7304034495
 O         -2.3408998097       -0.5866483695        2.8824005095
 O         -2.0630727298       -0.5828761588       -1.8266777806
 C         -1.2268070299       -1.9162842693        0.5853584692
 C          0.1054563401       -1.5798177094       -0.0404187108
 C          0.7872543999       -2.4409024794       -0.8901346809
 C          2.0205498100       -2.0854627795       -1.4089375509
 C          2.6031353502       -0.8733268996       -1.0882920107
 C          1.9355110203       -0.0097414797       -0.2298913906
 C          0.7015926403       -0.3677899296        0.2869683494
 H          0.1869986704        0.3074396804        0.9617269195
 N          2.5398381905        1.2226845502        0.1147849396
 S          3.8710617605        1.0790346598        1.1407724096
 O          3.7145158004       -0.0372948403        2.0467721794
 O          4.0299724507        2.3811400497        1.7509019998
 C          5.2289524005        0.7742824598        0.0321852695
 C          5.6028841506        1.7810728399       -0.8364575404
 C          6.6540216805        1.5531435198       -1.7102597904
 C          7.3090914103        0.3304369297       -1.6997020806
 C          6.9231782602       -0.6685523403       -0.8188613608
 C          5.8724454403       -0.4474696403        0.0578232493
 H          5.5332265502       -1.1943222504        0.7573639892
 H          7.4339980301       -1.6179288104       -0.8118647610
 H          8.1261175303        0.1553491097       -2.3817125107
 H          6.9579905706        2.3275722499       -2.3959249303
 H          5.0697913007        2.7167154199       -0.8065991202
 H          1.8856514206        1.8725330202        0.5294761597
 H          3.5574454802       -0.5873301797       -1.4992162907
 H          2.5336245599       -2.7618847595       -2.0750759710
 H          0.3506048498       -3.3913470693       -1.1492462311
 H         -1.0520176199       -2.1130556595        1.6541814292
 C         -1.8960546401       -3.1277785291       -0.0307871910
 C         -1.5723829803       -4.5047347992        0.4631608688
 C         -2.8996266402       -3.8868259091        0.7823152389
 H         -3.7810335303       -4.2690167789        0.2896939989
 H         -3.0778089202       -3.5455918992        1.7922284590
 H         -1.5459190305       -5.3156714791       -0.2489440413
 H         -0.8509380903       -4.5929879995        1.2615755788
 H         -2.1040583601       -2.9946880589       -1.0861622609
