  62
        -98.93781617
 C         -1.9408823988       -1.1461384712       -0.1214870886
 C         -2.4485899281        0.0116275533       -0.7557611833
 C         -3.9093983902        0.1971073915       -0.6942707759
 C         -4.6682180970       -0.7218978341       -0.0731333337
 C         -6.1691286858       -0.7542096235        0.0716970586
 C         -6.8725871455        0.5601780510        0.4391706092
 C         -6.0560968446        1.5094711130        1.3283031305
 H         -6.6690655361        1.8126876666        2.1791494317
 H         -5.1808946667        0.9922529816        1.7250988141
 C         -5.6103714672        2.7779195766        0.5965027948
 H         -5.3773861404        3.5471369287        1.3367167314
 H         -6.4444631627        3.1459562940       -0.0050536200
 C         -4.3801108142        2.6239595733       -0.2972597773
 H         -4.2442803417        3.5585452230       -0.8470117614
 H         -3.4871230063        2.4838719450        0.3183716702
 C         -4.4351972039        1.4640042246       -1.3047683225
 H         -5.4384695580        1.3344960107       -1.7036532131
 H         -3.7592990045        1.7044588333       -2.1300531736
 H         -7.1589135042        1.0865742750       -0.4703195097
 H         -7.7984400801        0.2900021509        0.9497902480
 H         -6.3633149439       -1.5018835694        0.8443215350
 H         -6.5925077336       -1.1376878019       -0.8610751188
 O         -4.1345534562       -1.8301692558        0.5150891737
 C         -2.7711108634       -2.0661866864        0.5159728152
 O         -2.4276789060       -3.1079835496        1.1106558271
 O         -1.7240324061        0.8498279085       -1.3524649211
 C         -0.4475801146       -1.4221828894       -0.1253066280
 C          0.2893061312       -0.2484229656        0.4717570081
 C         -0.1003191047        0.2106237107        1.7283603803
 C          0.5218556669        1.2979789315        2.3083706579
 C          1.5566956532        1.9440400537        1.6540808382
 C          1.9594433796        1.4902979979        0.4046014873
 C          1.3317342457        0.3946222582       -0.1754993804
 H          1.6530198686        0.0793347894       -1.1532848455
 N          2.9929749776        2.1415425474       -0.2862977655
 S          4.1780354992        1.2748754507       -1.0821417793
 O          5.2280848944        2.2398100113       -1.3226504541
 O          3.6341899187        0.6218243435       -2.2445713684
 C          4.7255578080        0.0696240319        0.1126081519
 C          5.5879409250        0.4847847379        1.1089201263
 C          5.9781470987       -0.4227916340        2.0797236556
 C          5.4948154414       -1.7221954210        2.0429353759
 C          4.6308786927       -2.1231973047        1.0359105604
 C          4.2396961606       -1.2205938572        0.0593238820
 H          3.5740046584       -1.4971462884       -0.7412957346
 H          4.2582005566       -3.1347990385        1.0069439141
 H          5.7951949660       -2.4280446307        2.8011996211
 H          6.6543717586       -0.1158725841        2.8612673234
 H          5.9502415268        1.4999326149        1.0946421273
 H          3.3900140723        2.9303081807        0.2025256961
 H          2.0381347956        2.8007189952        2.1006438363
 H          0.2009691240        1.6471299597        3.2783544120
 H         -0.9118560576       -0.2928132268        2.2369269238
 H         -0.2996644363       -2.2920292208        0.5313496028
 C          0.0090028865       -1.7856141072       -1.5223615464
 C          1.1641503044       -2.7188503678       -1.7193639871
 C         -0.2299792751       -3.1767169165       -2.0243114620
 H         -0.5184414250       -3.3099662834       -3.0561804065
 H         -0.7000195491       -3.8737217884       -1.3455214081
 H          1.8393111823       -2.5367199736       -2.5427867814
 H          1.6365776747       -3.1187486694       -0.8346097379
 H         -0.1198476214       -0.9749078585       -2.2307958463
