  62
        -98.94740546
 C          2.5324203679       -0.2223974344       -0.0082870604
 C          2.2750525906       -1.2590373089        0.9187254769
 C          1.7018286527       -2.4888621661        0.3626158056
 C          1.4611511941       -2.5736144662       -0.9585611961
 C          0.8995248324       -3.7676690086       -1.6823221282
 C         -0.6324946999       -3.8476189234       -1.6454796432
 C         -1.2234738486       -4.2789675890       -0.3028321119
 H         -2.2711706782       -4.5311095412       -0.4778702406
 H         -0.7218075760       -5.1834182196        0.0436945393
 C         -1.1548400049       -3.1986339919        0.7848262815
 H         -0.9914270011       -2.2216109335        0.3233301482
 H         -2.1150735509       -3.1353613790        1.3033552949
 C         -0.0862419544       -3.4260864543        1.8543857641
 H         -0.3372672660       -4.3130807872        2.4415932216
 H         -0.0993826844       -2.5611300214        2.5233878442
 C          1.3394416218       -3.5907522851        1.3123762043
 H          2.0326362556       -3.5412009491        2.1562303328
 H          1.4463508339       -4.5611391116        0.8271726209
 H         -1.0369600649       -2.8696924638       -1.9186830837
 H         -0.9419582203       -4.5674169923       -2.4070398500
 H          1.2157764857       -3.6742674967       -2.7234982227
 H          1.3251956328       -4.6826347610       -1.2687811759
 O          1.7373021647       -1.5599273314       -1.8203780922
 C          2.2320374686       -0.3488269737       -1.3646184270
 O          2.3835463140        0.5106966301       -2.2550506942
 H          0.4382008362        0.9164764654        0.9491440017
 C          0.6720702453        1.8566951293        0.4702041525
 C          1.9952949937        2.1658577980        0.1816679944
 C          2.2759045177        3.3914048541       -0.4068230869
 C          1.2470507506        4.2581108156       -0.7360323425
 C         -0.0727612064        3.9167189609       -0.5066017361
 C         -0.3612507701        2.7011680395        0.1052424765
 N         -1.6862489071        2.3125941024        0.3705815378
 S         -2.0317538285        0.6572658961        0.3427853634
 O         -1.7240463995        0.1108353081        1.6404224206
 O         -1.4064463457        0.0261962195       -0.7975818430
 C         -3.8010534304        0.7048998639        0.1251251723
 C         -4.6027608501        0.9085903779        1.2324257670
 C         -5.9761176783        0.9795294245        1.0609591939
 C         -6.5220456762        0.8462690275       -0.2072497136
 C         -5.7051985662        0.6389500451       -1.3086143904
 C         -4.3305913151        0.5690575314       -1.1440593250
 H         -3.6558541699        0.4013753635       -1.9686007662
 H         -6.1317642208        0.5313249650       -2.2928628011
 H         -7.5911641059        0.9008263612       -0.3381020061
 H         -6.6144421239        1.1369999082        1.9152628296
 H         -4.1323655326        0.9954741228        2.1979090492
 H         -2.3671514640        2.8501544970       -0.1481945430
 H         -0.8734512708        4.5794150654       -0.7977300593
 H          1.4767607925        5.2045294101       -1.2018190157
 H          3.2962938254        3.6603470690       -0.6257499937
 C          3.0353652184        1.1186714320        0.4982716801
 H          3.1055907419        1.0137412979        1.5916281098
 C          4.4078246781        1.4340404730       -0.0558290433
 C          5.3503394930        2.3088422990        0.7142913208
 C          5.6118352597        0.8374891348        0.6071245346
 H          6.4274047499        0.4997216660       -0.0143024634
 H          5.4416379042        0.2206291394        1.4775157194
 H          5.9918227038        2.9826030204        0.1667278029
 H          5.0104509556        2.6943180110        1.6635721424
 H          4.4119826617        1.4989189062       -1.1380789722
 O          2.5195393121       -1.1620035018        2.1533307934
