  62
        -98.94608770
 C          0.9727038659        1.6422521627        0.6217453756
 C          1.7509290749        1.5461272500       -0.5567334531
 C          2.8762483999        0.6018320273       -0.5039953797
 C          3.0861316831       -0.1134745614        0.6160650332
 C          4.1984792979       -1.1041392810        0.8020925383
 C          3.7719324206       -2.5230630429        0.4038919112
 C          3.0692461870       -2.6001135306       -0.9508972258
 H          2.8332611360       -3.6494645173       -1.1367190901
 H          2.1192271534       -2.0636129080       -0.8919171335
 C          3.8937194882       -2.0508791651       -2.1234923644
 H          4.9470944024       -2.0006009652       -1.8450580762
 H          3.8132516864       -2.7444675304       -2.9629726348
 C          3.4412261434       -0.6819194591       -2.6344325920
 H          2.3643891892       -0.6964417862       -2.8215130850
 H          3.9368530323       -0.4957755445       -3.5910412295
 C          3.7547746295        0.5086661752       -1.7195968263
 H          4.8088701014        0.4870683375       -1.4348910895
 H          3.5720217173        1.4239147554       -2.2903058187
 H          4.6592677403       -3.1585365251        0.3930059737
 H          3.0889834829       -2.9010716156        1.1658573855
 H          5.0531279911       -0.7895374877        0.2059158333
 H          4.4843736942       -1.1018828604        1.8554386234
 O          2.2837435022       -0.0316062151        1.7089790343
 C          1.2106341479        0.8439948628        1.7397379129
 O          0.5554367070        0.8183103165        2.8022655727
 H         -1.2956732248        0.2578658431        0.3110909027
 C         -1.6891506589        0.9777151440       -0.3915150409
 C         -1.2138124993        2.2832989603       -0.3605357721
 C         -1.7255709788        3.1993967804       -1.2692819241
 C         -2.6841954951        2.8086966184       -2.1884778959
 C         -3.1708497447        1.5150579663       -2.2001293506
 C         -2.6718686807        0.5917015740       -1.2871572046
 N         -3.1445507006       -0.7287934963       -1.2649177950
 S         -3.3758096653       -1.5202660985        0.1941483488
 O         -4.4314171178       -2.4727199289       -0.0816996043
 O         -3.6235215639       -0.5905526939        1.2698790069
 C         -1.8688355311       -2.4280574100        0.4626591412
 C         -1.5894533325       -3.4687289772       -0.4024199544
 C         -0.4523744639       -4.2300152353       -0.1919971701
 C          0.3834754601       -3.9405935841        0.8762501794
 C          0.0958300299       -2.8869796955        1.7294030221
 C         -1.0430623890       -2.1230996341        1.5253802689
 H         -1.2899356650       -1.2985888857        2.1777935425
 H          0.7475713894       -2.6436528522        2.5542967447
 H          1.2617298493       -4.5430923934        1.0469937047
 H         -0.2219486566       -5.0477019010       -0.8555382304
 H         -2.2746002900       -3.6705101252       -1.2088327204
 H         -3.8953980496       -0.9198023621       -1.9124867208
 H         -3.9298232793        1.2173048866       -2.9076396291
 H         -3.0673828644        3.5267478140       -2.8976743685
 H         -1.3714421122        4.2168941548       -1.2637713130
 C         -0.1811570578        2.6264560613        0.6856752968
 H         -0.6504906049        2.4831576990        1.6708196705
 C          0.3353096648        4.0470758611        0.5942922994
 C         -0.4363871811        5.1699315719        1.2173955225
 C          0.8495481895        4.7108358378        1.8348140271
 H          1.7173583589        5.3484756887        1.7573188365
 H          0.8040122388        4.1460338570        2.7549804323
 H         -1.3576816353        4.9224257277        1.7232241772
 H         -0.4504747221        6.1270520656        0.7182425681
 H          0.8654159281        4.2397337278       -0.3310876367
 O          1.5298692203        2.2236062448       -1.5940183149
