  62
        -98.94509736
 C         -2.5613523454        0.0220240436       -0.3658405077
 C         -2.2236339538       -0.5922327534        0.8643595008
 C         -1.9304387766       -2.0308830951        0.8027915432
 C         -2.0127048814       -2.6715004494       -0.3770276928
 C         -1.7691923131       -4.1394193940       -0.5785288164
 C         -0.3167926545       -4.4397688940       -0.9685531311
 C          0.7232247885       -3.7849875726       -0.0595590987
 H          1.7047283895       -4.1331921241       -0.3907394310
 H          0.7071425612       -2.7028682849       -0.2073564030
 C          0.5532534638       -4.0888581599        1.4352495867
 H         -0.0572459652       -4.9832903729        1.5684628258
 H          1.5375584958       -4.3002971317        1.8579983998
 C         -0.0411063895       -2.9354947991        2.2469622904
 H          0.4705300525       -2.0072778692        1.9786737809
 H          0.1489765865       -3.1283237017        3.3064176961
 C         -1.5509202064       -2.7143592598        2.0855337276
 H         -2.0786520888       -3.6650840689        2.1912763227
 H         -1.8803916140       -2.0462232162        2.8867197537
 H         -0.1793538140       -5.5233072154       -0.9603841056
 H         -0.1497657752       -4.0831535925       -1.9879109097
 H         -2.0247725074       -4.6675172915        0.3383912692
 H         -2.4266353730       -4.4834582982       -1.3796227866
 O         -2.3331451505       -2.0453238734       -1.5402448061
 C         -2.5865379567       -0.6837568091       -1.5663952954
 O         -2.8333370354       -0.2276734002       -2.7041009082
 H         -0.2628552500        0.9443687734       -0.6187782364
 C         -0.4201353552        1.8554258281       -0.0595769448
 C         -1.7154477344        2.3084688442        0.1531326420
 C         -1.8945801790        3.4982754013        0.8474579645
 C         -0.8009203057        4.2006438079        1.3248161028
 C          0.4843722797        3.7284979274        1.1380621501
 C          0.6737024928        2.5335024088        0.4499280891
 N          1.9630376896        1.9957658136        0.3080556378
 S          2.2531223630        0.6171581938       -0.6001742572
 O          1.9912160885        0.8591002995       -2.0045236467
 O          1.5616875015       -0.4920612194        0.0027204084
 C          4.0077195981        0.4540303703       -0.3338608717
 C          4.4486003790       -0.2292359345        0.7832541824
 C          5.8115464482       -0.3300776344        1.0130513853
 C          6.7062170425        0.2519955254        0.1273519379
 C          6.2493572676        0.9319832901       -0.9916390435
 C          4.8873930648        1.0362533909       -1.2268205140
 H          4.4867995648        1.5439305031       -2.0896145963
 H          6.9472605812        1.3794913566       -1.6807279925
 H          7.7664239301        0.1720825958        0.3084559410
 H          6.1697094050       -0.8616357851        1.8798848783
 H          3.7149787095       -0.6712486220        1.4375970461
 H          2.7032059147        2.6794646173        0.2560145150
 H          1.3344078665        4.2674011387        1.5264046532
 H         -0.9537935715        5.1266739619        1.8580702300
 H         -2.8904715412        3.8749163058        1.0152867924
 C         -2.8651520885        1.5076477090       -0.4110083329
 H         -2.9690235169        1.7646364304       -1.4767595195
 C         -4.1801596881        1.7904774548        0.2894842546
 C         -5.0907849813        2.8729707097       -0.2049063214
 C         -5.4583068726        1.4345680227       -0.4066150454
 H         -6.2653891134        1.0180309024        0.1769811222
 H         -5.3775566447        1.0176502919       -1.4004042899
 H         -5.6516699040        3.4453200192        0.5185682151
 H         -4.7747188353        3.4375584026       -1.0692436746
 H         -4.1246086078        1.6118244885        1.3572648400
 O         -2.1875688282        0.0258693216        1.9608609474
