  62
        -98.93482678
 C         -1.9790409912       -0.5283396703       -0.1453429604
 C         -2.6903429913        0.5514177794        0.4408664599
 C         -4.1072875612        0.3021021592        0.7491793499
 C         -4.6445114411       -0.9122250308        0.5483992996
 C         -6.0589009310       -1.3243099611        0.8519697895
 C         -7.0620511111       -0.9765152109       -0.2563363504
 C         -7.3950898413        0.5102193691       -0.3885485400
 H         -8.2618109313        0.5867098492       -1.0481566700
 H         -7.6915551113        0.9026879788        0.5846782901
 C         -6.2579796414        1.3647217094       -0.9661231898
 H         -5.5278418413        0.7150315896       -1.4549131200
 H         -6.6569138815        2.0302826995       -1.7350351296
 C         -5.5371697815        2.2383318492        0.0608453004
 H         -6.2311831715        2.9813279490        0.4597885106
 H         -4.7304460015        2.7713888194       -0.4488861195
 C         -4.9266750114        1.4603676890        1.2339170802
 H         -4.2637256614        2.1324298089        1.7837515403
 H         -5.7118977013        1.1155053287        1.9059704801
 H         -6.6749595911       -1.3497474606       -1.2075139305
 H         -7.9866787210       -1.5166463211       -0.0399118105
 H         -6.0456726509       -2.4092920311        0.9768250493
 H         -6.3796426311       -0.8705415113        1.7901995896
 O         -3.9186679410       -1.9456398906        0.0469814593
 C         -2.6034959710       -1.7705133504       -0.3390818107
 O         -2.0922711209       -2.7982149402       -0.8319894809
 O         -2.2061275814        1.6781227694        0.7200755102
 C         -0.5366640012       -0.5025275501       -0.6273222804
 C          0.5217180188       -0.4195393502        0.4506887996
 C          0.4052669588        0.3670391595        1.5898620898
 C          1.4285835988        0.4111660394        2.5208575098
 C          2.5983627689       -0.2991043404        2.3224784196
 C          2.7334584089       -1.0751358701        1.1780602694
 C          1.6938501989       -1.1428732600        0.2630775494
 H          1.8150179490       -1.7605302798       -0.6145013607
 N          3.9243614990       -1.7847022099        0.9123315892
 S          4.7571125589       -1.3360631095       -0.4718197407
 O          3.9803094589       -1.6684479293       -1.6375847208
 O          6.0526612690       -1.9672161394       -0.3581530709
 C          4.9224412887        0.4336664305       -0.3155903103
 C          3.8791576386        1.2460363505       -0.7140653001
 C          3.9755031785        2.6114264204       -0.4967063297
 C          5.1061520684        3.1384193604        0.1083389904
 C          6.1476527885        2.3097194104        0.4975758802
 C          6.0538230287        0.9429076605        0.2916794298
 H          6.8387024188        0.2613552005        0.5777750396
 H          7.0270807585        2.7228289904        0.9647590502
 H          5.1745874083        4.2016016504        0.2764240906
 H          3.1627098184        3.2542625504       -0.7946879395
 H          3.0141184487        0.8052327305       -1.1822552001
 H          4.5639278290       -1.8046900601        1.6950007592
 H          3.4000318189       -0.2551000605        3.0443529396
 H          1.3163272487        1.0195415192        3.4052651299
 H         -0.4848629413        0.9551063394        1.7397716200
 H         -0.4131758411       -1.4907732399       -1.0970506906
 C         -0.1826666113        0.5028159202       -1.7251728202
 C         -1.2125291614        1.2497063603       -2.5146380900
 C         -0.3026420215        1.9877059202       -1.5795324498
 H          0.4772234785        2.6033980304       -2.0037216897
 H         -0.7333210715        2.3667899499       -0.6674594197
 H         -1.0706427714        1.3518962606       -3.5806390699
 H         -2.2459616214        1.1360958501       -2.2202002900
 H          0.6808275687        0.1558267505       -2.2885042003
