  62
        -98.94850739
 C          1.2470627390        1.5142406969        0.5005616695
 C          2.1602126394        1.1702253822       -0.5250377695
 C          3.1931891015        0.1910477623       -0.1593655230
 C          3.2198382849       -0.3083647077        1.0894067017
 C          4.1931233947       -1.3394428346        1.5812310161
 C          3.6361066485       -2.7599590280        1.4170317319
 C          3.0743194529       -3.0535772521        0.0254577530
 H          2.1676956712       -2.4626645451       -0.1301959978
 H          2.7623501107       -4.1008969903        0.0190101131
 C          4.0598880130       -2.8084578296       -1.1257233590
 H          3.9872688839       -3.6433903571       -1.8260416974
 H          5.0808998484       -2.7948860445       -0.7415089068
 C          3.8019131437       -1.5323362872       -1.9294390897
 H          2.7470428300       -1.4904769072       -2.2148407267
 H          4.3895108842       -1.5863982266       -2.8500653183
 C          4.1650367118       -0.2163422879       -1.2298023273
 H          4.1347015355        0.5790826499       -1.9803023014
 H          5.1802156348       -0.2772330539       -0.8323250349
 H          2.8307796128       -2.9048727152        2.1411091916
 H          4.4329226271       -3.4705127333        1.6466359491
 H          4.3825610807       -1.1551079504        2.6403925819
 H          5.1274735260       -1.2392339023        1.0322586954
 O          2.3289345835        0.0492761891        2.0489441079
 C          1.3016389187        0.9356555598        1.7673542739
 O          0.5132566699        1.1284556082        2.7167113462
 O          2.1152267441        1.6525480168       -1.6870863207
 C          0.1040694594        2.4667814222        0.2059776076
 C         -0.7884142393        1.9012168464       -0.8744050130
 C         -1.4719807945        2.6925792798       -1.7897715465
 C         -2.2959513315        2.1101478822       -2.7375725575
 C         -2.4728707641        0.7387467501       -2.7849886920
 C         -1.7958822177       -0.0605392362       -1.8712112522
 C         -0.9659985317        0.5268428138       -0.9309330454
 H         -0.4247656575       -0.1070506972       -0.2467880296
 N         -1.9290006298       -1.4566535533       -1.8781228305
 S         -1.8711208938       -2.3079621440       -0.4409773385
 O         -0.5251138011       -2.3490153860        0.0718307803
 O         -2.4611813459       -3.5889848980       -0.7669717340
 C         -2.9560707171       -1.4132754510        0.6567400461
 C         -2.4550895442       -0.6569786533        1.6957885928
 C         -3.3379852511        0.0649215308        2.4846223734
 C         -4.6982271066        0.0177068781        2.2251983754
 C         -5.1881695441       -0.7555090969        1.1829311312
 C         -4.3109556525       -1.4746869381        0.3891868549
 H         -4.6526048721       -2.0964979942       -0.4222947573
 H         -6.2473564444       -0.7963435183        0.9866198640
 H         -5.3787596622        0.5841058692        2.8411066981
 H         -2.9448190364        0.6624864256        3.2918779984
 H         -1.3929936503       -0.6293105291        1.8843832689
 H         -2.6232323489       -1.8222096724       -2.5123744134
 H         -3.1158111228        0.2891380057       -3.5257918470
 H         -2.8138817817        2.7351428522       -3.4490010884
 H         -1.3524750265        3.7634696729       -1.7660344304
 H         -0.4894908441        2.5248019117        1.1313663619
 C          0.6314219068        3.8493429177       -0.1212815388
 C         -0.1390002191        5.0707767202        0.2787276605
 C          1.1268471641        4.7150502748        0.9969360437
 H          2.0059618189        5.3193666127        0.8312583286
 H          1.0542299915        4.3171750397        1.9990439951
 H         -0.1275199677        5.9259051300       -0.3802523427
 H         -1.0721607560        4.9265611252        0.8020970117
 H          1.1834975902        3.8716058976       -1.0535574014
