  62
        -98.94476809
 C         -1.8932131528       -0.0898108761        0.0191387141
 C         -2.8668106564       -1.0395754861        0.4103625933
 C         -4.1964712033       -0.5031768045        0.7274563335
 C         -4.4049369008        0.8240467301        0.6498188884
 C         -5.7233343435        1.4984209376        0.8937509185
 C         -6.5272126455        1.6333191601       -0.4070961378
 C         -6.6238041421        0.3366875539       -1.2111495779
 H         -7.2373743522        0.5445410297       -2.0904941026
 H         -5.6285297827        0.0659782653       -1.5711883793
 C         -7.2223663920       -0.8469263721       -0.4382429354
 H         -7.7624972825       -0.4829665633        0.4365076522
 H         -7.9473449326       -1.3527505752       -1.0794135375
 C         -6.2023516446       -1.9001789967       -0.0019266756
 H         -5.5950899847       -2.1990904922       -0.8600603764
 H         -6.7497374891       -2.7843560752        0.3353863823
 C         -5.2596554185       -1.4844147103        1.1343583960
 H         -5.8421953133       -1.0972125458        1.9726801317
 H         -4.7280020402       -2.3799714652        1.4690614628
 H         -6.0475745003        2.3892425944       -1.0332927674
 H         -7.5301237722        1.9850394796       -0.1581945434
 H         -5.5308213447        2.4943266510        1.2962533937
 H         -6.2897075488        0.9247365878        1.6248138047
 O         -3.4389374862        1.7078563057        0.2903820455
 C         -2.1624932048        1.2772522527       -0.0430533636
 O         -1.3799220125        2.1907404182       -0.3657972708
 O         -2.6320947697       -2.2750770360        0.4955056124
 C         -0.5022572001       -0.5773985087       -0.3443369637
 C          0.5285218868        0.0845165646        0.5351791324
 C          0.3404122690        0.0656668529        1.9158049909
 C          1.2430462925        0.6778737497        2.7618052258
 C          2.3649289437        1.3086336221        2.2516423666
 C          2.5695443727        1.3233177348        0.8785194231
 C          1.6571639733        0.7090003099        0.0294426908
 H          1.8381437673        0.7518058645       -1.0311027855
 N          3.6990814483        1.9554696632        0.3309316644
 S          4.6098807037        1.1473736376       -0.8159363733
 O          5.8870017274        1.8263619256       -0.8123544792
 O          3.9144913386        1.1090706125       -2.0762417734
 C          4.7856934855       -0.4959949647       -0.1466022036
 C          5.6813113855       -0.6854029377        0.8880085422
 C          5.7751039911       -1.9373996365        1.4729276524
 C          4.9684187447       -2.9713803958        1.0219299061
 C          4.0763844730       -2.7653415224       -0.0187672923
 C          3.9809041548       -1.5157756339       -0.6109796519
 H          3.3022262969       -1.3165884304       -1.4236504384
 H          3.4512232094       -3.5711374483       -0.3692990280
 H          5.0364901666       -3.9446001939        1.4819346012
 H          6.4716556752       -2.1029009132        2.2789309821
 H          6.2968648652        0.1415504410        1.2031837474
 H          4.2975250022        2.3960573366        1.0145150882
 H          3.0689875786        1.7945303940        2.9099309042
 H          1.0760215936        0.6629259743        3.8282394839
 H         -0.5357414778       -0.4271768410        2.3147088972
 H         -0.5060003631       -1.6547416787       -0.1203084930
 C         -0.2516752936       -0.3902972688       -1.8255941175
 C          0.6305301623       -1.3453357378       -2.5702867469
 C         -0.8511123246       -1.3637825618       -2.7942355014
 H         -1.2402729594       -0.9878825475       -3.7286214543
 H         -1.4187100330       -2.1859456967       -2.3831047309
 H          1.2691774750       -0.9570700346       -3.3501942862
 H          1.0576805800       -2.1648170969       -2.0119661124
 H         -0.2375511725        0.6538459180       -2.1192395924
