  62
        -98.94018303
 C          2.6300423789        1.3200261291       -0.0312811382
 C          2.5314703289        0.1817252799       -0.8666154893
 C          3.7835901488       -0.5556573300       -1.0906010198
 C          4.9207673288       -0.1144739507       -0.5221872491
 C          6.2534455887       -0.7969014908       -0.6254242495
 C          6.4606747384       -1.7874242319        0.5288206496
 C          5.2824954582       -2.7370702520        0.7461582884
 H          5.5526945080       -3.4096656828        1.5631452979
 H          4.4150912982       -2.1617578622        1.0785448888
 C          4.8967232683       -3.5627811807       -0.4890616324
 H          5.7189265084       -3.5641158802       -1.2055784223
 H          4.7329000281       -4.5976194210       -0.1811481234
 C          3.6170582585       -3.0992332099       -1.1880045522
 H          2.8105095784       -3.0060550705       -0.4555496322
 H          3.3202700285       -3.8727336992       -1.9015310030
 C          3.7194778688       -1.7785472392       -1.9615879309
 H          4.5737835289       -1.8150405487       -2.6406621008
 H          2.8086220589       -1.6732873385       -2.5583338010
 H          7.3643485883       -2.3661416918        0.3294380392
 H          6.6164686483       -1.2195892428        1.4489944701
 H          6.3171390488       -1.3159943699       -1.5796391100
 H          7.0336437288       -0.0350973909       -0.5828668487
 O          4.9772172088        0.9924618885        0.2617374019
 C          3.8362231988        1.7270949584        0.5384928724
 O          4.0216546088        2.7041682677        1.2919023934
 H         -1.2611532210        1.7573913600       -0.3877878684
 C         -0.9556093512        1.1820539791        0.4720616011
 C          0.3486389487        1.2656761385        0.9293177814
 C          0.7128711884        0.5079142274        2.0397136707
 C         -0.2031548218       -0.3159404730        2.6635220198
 C         -1.5059568618       -0.3988539424        2.2020549695
 C         -1.8812832915        0.3539237887        1.0988865701
 N         -3.2095596614        0.3193134393        0.6340801799
 S         -4.0339521316       -1.1518090105        0.5712204083
 O         -4.3513947619       -1.5600302018        1.9167452479
 O         -3.3051570416       -2.1134084399       -0.2263198625
 C         -5.5193390914       -0.6372857696       -0.2675704515
 C         -6.4865492814        0.0306518399        0.4594410690
 C         -7.6322041212        0.4625453507       -0.1892081808
 C         -7.7905943610        0.2211393620       -1.5459913510
 C         -6.8118625010       -0.4517780675       -2.2616578615
 C         -5.6624549212       -0.8851934283       -1.6192139817
 H         -4.8781863911       -1.4172228379       -2.1338920221
 H         -6.9388258508       -0.6400004665       -3.3156758917
 H         -8.6834271309        0.5577888525       -2.0488614309
 H         -8.3965563013        0.9845201702        0.3635083296
 H         -6.3234237516        0.1883311789        1.5126266192
 H         -3.3071683712        0.8041573101       -0.2483554897
 H         -2.2258997619       -1.0450712528        2.6767293487
 H          0.0967698279       -0.9027394239        3.5193024293
 H          1.7307410983        0.5695370270        2.4020407310
 C          1.3913901889        2.1417874190        0.2776572324
 H          1.7041070089        2.8984403183        1.0118585331
 C          0.9094795692        2.8471125003       -0.9728050570
 C          0.1378565394        4.1273842903       -0.8668170960
 C          1.5515289795        4.1429867905       -1.3635213157
 H          1.7299798997        4.3342087615       -2.4110480455
 H          2.3220091694        4.5296390898       -0.7123667352
 H         -0.0551906607        4.5129096693        0.1227872244
 H         -0.6541306105        4.3142906810       -1.5764046459
 H          0.6557653893        2.1563046110       -1.7689064377
 O          1.4566530589       -0.1979394194       -1.4021570298
