  62
        -98.94029960
 C          2.0753000430        1.0049029116        0.0446680054
 C          2.3746741067       -0.3756930222        0.1576306650
 C          3.7236277409       -0.6989410731        0.6530870455
 C          4.5597984569        0.2934325101        1.0045197055
 C          5.9749765859        0.1042924183        1.4664048129
 C          6.9548921356        0.1474487643        0.2854809248
 C          6.5507935065       -0.7481161878       -0.8857187286
 H          5.6282765545       -0.3641549629       -1.3271793607
 H          7.3302651029       -0.6611686325       -1.6457582589
 C          6.3578804436       -2.2259873314       -0.5179522100
 H          6.8464741476       -2.8421499646       -1.2757509923
 H          6.8451031487       -2.4376927339        0.4345247197
 C          4.8976630870       -2.6776084527       -0.4506615801
 H          4.8812984915       -3.7696721412       -0.4008760288
 H          4.3816712123       -2.3856960210       -1.3690312755
 C          4.0910996331       -2.1533219084        0.7442921025
 H          3.1436628752       -2.7000314710        0.7724868687
 H          4.6319050341       -2.3574320575        1.6706695903
 H          7.9426643790       -0.1456027824        0.6457586822
 H          7.0168175427        1.1766207340       -0.0759235283
 H          6.0578475378       -0.8480125812        1.9866283702
 H          6.2204949965        0.9097720973        2.1606388122
 O          4.2173140801        1.6049904540        0.9346859195
 C          2.9769259270        1.9913446668        0.4553816090
 O          2.7940539629        3.2248935736        0.4509402424
 O          1.5761820363       -1.3009030244       -0.1394635833
 C          0.7312083874        1.5002051721       -0.4643119881
 C         -0.3854716267        0.7426494722        0.2093953107
 C         -0.6105893316        0.9528417952        1.5668778642
 C         -1.6104448434        0.2701287672        2.2330211555
 C         -2.4102097880       -0.6355416826        1.5587297494
 C         -2.1948314895       -0.8505601075        0.2042039750
 C         -1.1963431416       -0.1551915973       -0.4659485744
 H         -1.0248466822       -0.3516609850       -1.5126516530
 N         -3.0042411906       -1.7674894268       -0.4848294955
 S         -4.6514833080       -1.7369478644       -0.2130278266
 O         -4.9634100244       -2.4390393240        1.0070906680
 O         -5.2451940671       -2.2729516704       -1.4179622075
 C         -5.0549611771       -0.0075835490       -0.0335110608
 C         -4.7915559050        0.8344105404       -1.0960401616
 C         -5.0627879354        2.1862114154       -0.9637409474
 C         -5.5899441622        2.6714565028        0.2235243965
 C         -5.8540464978        1.8128446115        1.2788975645
 C         -5.5826752540        0.4596702936        1.1525215069
 H         -5.7701712454       -0.2418455368        1.9490440541
 H         -6.2662751273        2.1925704443        2.1998375824
 H         -5.7963537436        3.7252360730        0.3250265557
 H         -4.8598775118        2.8564728855       -1.7835789891
 H         -4.3884041846        0.4243385046       -2.0079702662
 H         -2.7806743369       -1.8679355605       -1.4632757967
 H         -3.1821597091       -1.1922069783        2.0649167080
 H         -1.7670714192        0.4395031679        3.2875645853
 H          0.0208849983        1.6532611526        2.0967843506
 H          0.6740060777        2.5483910584       -0.1290312438
 C          0.6102691420        1.5268402070       -1.9810109481
 C          1.8013533927        1.8371113608       -2.8364440931
 C          1.1971166554        0.4667907746       -2.8621277952
 H          0.6455665516        0.1691362911       -3.7425563947
 H          1.7296877567       -0.3429843839       -2.3892858526
 H          1.6663426171        2.4775808946       -3.6949924956
 H          2.7510729925        1.9701473683       -2.3386640442
 H         -0.3344700826        1.9565159215       -2.3003714239
