  62
        -98.93819912
 C          2.3743622330        1.1444189146       -0.5178559265
 C          3.2543032113        0.5586874653        0.4289422185
 C          3.7667927473       -0.7795607160        0.1150824457
 C          3.3815975609       -1.3727221355       -1.0290860865
 C          3.7650396586       -2.7627144690       -1.4462499544
 C          2.7364291747       -3.7908827739       -0.9553917478
 C          2.3881547520       -3.6585573263        0.5274289632
 H          1.8621967818       -2.7134265338        0.6848475137
 H          1.6832838788       -4.4578652771        0.7666550317
 C          3.5937976098       -3.7370746903        1.4747535289
 H          3.3392992869       -4.3923449187        2.3103133593
 H          4.4422686157       -4.1857860351        0.9570106820
 C          4.0178041955       -2.3949229228        2.0740096481
 H          4.7216764346       -2.5920420252        2.8869595621
 H          3.1471703627       -1.8957551900        2.5071798783
 C          4.6981474511       -1.4185794455        1.1064796504
 H          5.5200819290       -1.9211719705        0.5926685192
 H          5.1114232260       -0.5972518382        1.6991152888
 H          3.1270248774       -4.7910785701       -1.1526858659
 H          1.8170157470       -3.6624694405       -1.5321050375
 H          3.8066334888       -2.7955813773       -2.5362877453
 H          4.7497252540       -2.9973371020       -1.0462072140
 O          2.5548574675       -0.7778481084       -1.9240652395
 C          2.0116957607        0.4843229462       -1.6932916310
 O          1.2693470166        0.8745823825       -2.6123048716
 O          3.6004014352        1.1418165687        1.4923429694
 C          1.8117764502        2.5021180949       -0.1370093172
 C          0.6514771348        2.3393874067        0.8136952792
 C          0.5186590574        3.1668722932        1.9230693102
 C         -0.5590899044        3.0273044534        2.7791303386
 C         -1.5254530742        2.0674563885        2.5409523042
 C         -1.3929904894        1.2227644359        1.4436317702
 C         -0.3070883417        1.3613577629        0.5913608955
 H         -0.2168958593        0.7020359653       -0.2600353438
 N         -2.3355640169        0.2112198767        1.2028172620
 S         -2.6503918072       -0.2316003600       -0.3973758280
 O         -1.6793944343       -1.2165759570       -0.8022531976
 O         -2.7735705725        0.9522392944       -1.2162174644
 C         -4.2459939974       -1.0043591212       -0.2020289131
 C         -5.3871589917       -0.2523375715       -0.4091542435
 C         -6.6254438938       -0.8473618006       -0.2256997001
 C         -6.7015210061       -2.1766051513        0.1623573924
 C         -5.5477333746       -2.9192315281        0.3650027931
 C         -4.3063984956       -2.3304151832        0.1824218397
 H         -3.3828251766       -2.8688446811        0.3182933184
 H         -5.6103291499       -3.9533607944        0.6629830125
 H         -7.6660597124       -2.6377194973        0.3044734651
 H         -7.5236975387       -0.2734638935       -0.3866001391
 H         -5.2782717453        0.7740951658       -0.7206747671
 H         -3.1841255744        0.3228212068        1.7406892040
 H         -2.3699273914        1.9601568503        3.2043951617
 H         -0.6511921592        3.6758097142        3.6369844049
 H          1.2750486596        3.9128688781        2.1176810806
 H          2.6199700658        3.0027359112        0.4221874853
 C          1.4640980896        3.3920207244       -1.3199371071
 C          0.0711999553        3.5616239172       -1.8394206613
 C          0.7373905122        4.6882275496       -1.1113864116
 H          1.0533946050        5.5511670605       -1.6776419968
 H          0.3885690332        4.9129610523       -0.1150184139
 H         -0.0546931799        3.6287326536       -2.9094047074
 H         -0.7281621177        3.0204389315       -1.3553051843
 H          2.2521206618        3.3896814226       -2.0664415235
