  62
        -98.93302451
 C         -1.7544371611       -1.2819115386        0.4238168006
 C         -1.3293577702       -0.2582146793       -0.4514464298
 C         -1.8363717493        1.0987109012       -0.1781775306
 C         -2.6588126894        1.2853148822        0.8697906092
 C         -3.3280954685        2.5680515229        1.2791544385
 C         -4.5365622081        2.9165236533        0.3858450281
 C         -4.3851848481        2.5551971425       -1.0915574517
 H         -4.0989998388        1.5049602223       -1.1744571612
 H         -5.3662648979        2.6607611230       -1.5621749420
 C         -3.3978399273        3.4159951615       -1.8769412419
 H         -3.3429273474        3.0149947409       -2.8918778617
 H         -3.7897142466        4.4340437417       -1.9409640925
 C         -1.9829934074        3.4928112107       -1.3061087417
 H         -1.9815089172        4.0636646712       -0.3812100320
 H         -1.3713783169        4.0538007500       -2.0191704519
 C         -1.2816982284        2.1504853103       -1.1070771609
 H         -0.2595140383        2.3469009798       -0.7563950908
 H         -1.1775397285        1.6555189298       -2.0788282807
 H         -4.7455272074        3.9828131135        0.4828972575
 H         -5.3999661186        2.3676989641        0.7687187582
 H         -3.6787740088        2.4318484936        2.3044833085
 H         -2.5932505780        3.3687314924        1.2875354882
 O         -3.0502525602        0.2669999929        1.6868235696
 C         -2.5905278111       -1.0223217375        1.5066028703
 O         -2.9947968018       -1.8432028868        2.3585285706
 O         -0.5600278501       -0.4612994603       -1.4272801596
 C         -1.2563788121       -2.7129139191        0.2439862213
 C          0.2335570580       -2.6640344002       -0.0040649084
 C          0.9575093078       -3.2736046612       -1.0206530380
 C          2.3302290879       -3.1046852822       -1.1154603078
 C          3.0165947183       -2.3037046923       -0.2244595680
 C          2.3067920686       -1.6919421313        0.8021380815
 C          0.9473346584       -1.9087016003        0.9261634814
 H          0.4209151486       -1.4267934695        1.7382603911
 N          2.9319999490       -0.8205206813        1.7220212412
 S          2.4916835202        0.7950032089        1.6121663004
 O          3.2643044904        1.4679633689        2.6354466002
 O          1.0605201402        0.9251379100        1.7038964201
 C          3.0810161508        1.3059830878        0.0064014603
 C          2.3801993608        0.9362727877       -1.1244578797
 C          2.8905588213        1.2883055168       -2.3655192197
 C          4.0809976018        1.9924056359       -2.4556750899
 C          4.7729326118        2.3531678860       -1.3089929999
 C          4.2724217713        2.0031747969       -0.0657837098
 H          4.7720181113        2.2630006670        0.8536230802
 H          5.6981112222        2.9021936553       -1.3793856000
 H          4.4705356921        2.2617243852       -3.4247743599
 H          2.3469824612        1.0039617768       -3.2521164097
 H          1.4515879004        0.3927672384       -1.0362808496
 H          3.9417175090       -0.8811530120        1.7134707815
 H          4.0800634585       -2.1450387631       -0.3216059179
 H          2.8664100577       -3.5889587730       -1.9173947375
 H          0.4715269075       -3.8722091512       -1.7687820678
 H         -1.3948587026       -3.1922609285        1.2287854015
 C         -2.2172688824       -3.4203808788       -0.7011383785
 C         -2.1071662221       -3.4367429896       -2.1930100085
 C         -1.9666446931       -4.7140184393       -1.4164946079
 H         -2.7837952536       -5.4192508788       -1.4605346777
 H         -1.0016667235       -5.1840495800       -1.3265842675
 H         -3.0111815819       -3.2850412892       -2.7651427587
 H         -1.2393562917       -2.9769770204       -2.6367795485
 H         -3.2251399424       -3.3005226879       -0.3072526388
