  62
        -98.94428146
 C         -1.3641167442       -1.6098674795       -0.9157718074
 C         -2.5855660857       -1.4094420646       -0.2214005958
 C         -3.3337938356       -0.1936045810       -0.5496121904
 C         -2.8621867702        0.6414071948       -1.4924459615
 C         -3.4859019041        1.9418166347       -1.9187611826
 C         -3.0967815289        3.1188245521       -1.0132124177
 C         -3.7775198945        3.1330657015        0.3561969337
 H         -3.6086590052        4.1223408409        0.7865329839
 H         -4.8542222045        3.0096688734        0.2305671258
 C         -3.2437890375        2.0767668007        1.3343968646
 H         -2.2679616794        1.7236638941        0.9897490772
 H         -3.0810979476        2.5381086871        2.3119901188
 C         -4.1722689413        0.8803824281        1.5493456766
 H         -5.0905460704        1.2150159549        2.0381687363
 H         -3.6700383564        0.1763534089        2.2182648857
 C         -4.5486426136        0.1266558287        0.2671663132
 H         -5.2593837401        0.7096303469       -0.3181638408
 H         -5.0179811505       -0.8185218440        0.5517019492
 H         -3.3593487949        4.0403975124       -1.5385352679
 H         -2.0124307465        3.1078634255       -0.8730070764
 H         -3.1243555921        2.1477291845       -2.9285475236
 H         -4.5713801695        1.8428569684       -1.9493221330
 O         -1.7299388353        0.3802038876       -2.1895810958
 C         -0.9166266826       -0.7052751168       -1.8780161245
 O          0.1330884552       -0.7376183221       -2.5473590202
 O         -3.0229997676       -2.2149275151        0.6447336630
 C         -0.5160737257       -2.7748626342       -0.4301369897
 C          0.1509217415       -2.3471326652        0.8550952775
 C          0.1143010641       -3.1297939064        2.0011137599
 C          0.6582125348       -2.6581770073        3.1840926319
 C          1.2261724043       -1.3991839722        3.2493954043
 C          1.2748977616       -0.6100948510        2.1029676595
 C          0.7655398422       -1.1041386633        0.9135406342
 H          0.7915955359       -0.4893575317        0.0302567895
 N          1.8417969023        0.6658771499        2.1389184423
 S          1.5955477921        1.8587581829        0.9928719643
 O          1.8805363674        3.0839816919        1.7113019002
 O          0.2933149716        1.7759054502        0.3778183550
 C          2.9145481402        1.5664022061       -0.1678301069
 C          2.6868676468        0.9887140964       -1.3993531590
 C          3.7676347904        0.7599729546       -2.2389906066
 C          5.0467391233        1.1108562047       -1.8396043674
 C          5.2585477052        1.6966409657       -0.5998732983
 C          4.1853579753        1.9250899413        0.2437517953
 H          4.3015577191        2.3887784403        1.2093447351
 H          6.2536991770        1.9731025752       -0.2907522739
 H          5.8810962997        0.9287184222       -2.4984654693
 H          3.5913929005        0.3033429910       -3.1998371497
 H          1.6883103795        0.7138866411       -1.7036981158
 H          2.0542230288        1.0327715004        3.0530312220
 H          1.6194767730       -1.0207246381        4.1803956635
 H          0.6189377463       -3.2697282054        4.0728514693
 H         -0.3690816510       -4.0950577645        1.9709362988
 H         -1.2313378533       -3.5746639483       -0.1779419987
 C          0.4538644061       -3.3342859481       -1.4560035052
 C          1.9245100116       -3.0585004438       -1.4294415514
 C          1.4140342187       -4.4177211759       -1.0617574675
 H          1.5780043830       -5.2362547092       -1.7458745740
 H          1.4470389982       -4.6968258653       -0.0194037465
 H          2.4223072983       -2.9251562375       -2.3772880517
 H          2.3122399989       -2.4267540112       -0.6451847208
 H          0.0001587648       -3.4166398568       -2.4377945145
