  62
        -98.94803621
 C          1.2650320411        1.0638288131        0.0251259785
 C          1.6144831003       -0.0380303247        0.8409142225
 C          2.6332768289       -0.9450684507        0.2988140364
 C          3.1192713787       -0.7226229834       -0.9359680368
 C          4.1875513606       -1.5437727517       -1.5969751588
 C          5.5856722619       -0.9813237475       -1.3039378859
 C          5.8398022062       -0.6980980121        0.1765523159
 H          6.8653330823       -0.3336845549        0.2663796068
 H          5.1807483313        0.1098954310        0.5019070897
 C          5.6455017033       -1.9113231887        1.0966841067
 H          5.6673797587       -2.8295757083        0.5086820454
 H          6.4802198963       -1.9558379757        1.7993260219
 C          4.3632137031       -1.8753334846        1.9299440454
 H          4.2911040443       -0.9162451297        2.4488285813
 H          4.4304619411       -2.6564667795        2.6918138654
 C          3.0583661710       -2.1037248148        1.1562365160
 H          3.1357032357       -3.0150444348        0.5589452031
 H          2.2566882716       -2.2449966435        1.8875056921
 H          6.3270439070       -1.6920976057       -1.6735051133
 H          5.7046582175       -0.0469839210       -1.8573304330
 H          4.1151631174       -2.5720178266       -1.2470608242
 H          4.0150484736       -1.5260639776       -2.6746230030
 O          2.7183279738        0.3140187300       -1.7151023740
 C          1.7814183750        1.2308853482       -1.2594619570
 O          1.5003982907        2.1268938259       -2.0781287750
 O          1.0932808423       -0.2541604322        1.9691565755
 C          0.2222288990        2.0451957085        0.5247068442
 C         -1.0213388220        1.9846922051       -0.3295398341
 C         -1.7962961226        3.0984827561       -0.6292014787
 C         -2.9431948837        2.9666896790       -1.3930938033
 C         -3.3565428510        1.7288279231       -1.8513912488
 C         -2.5908749504        0.6077230512       -1.5521323026
 C         -1.4346152025        0.7471242071       -0.8023873691
 H         -0.8337670830       -0.1267898936       -0.6048937311
 N         -2.9654783848       -0.6702229810       -1.9925390580
 S         -2.6657617836       -2.0009422029       -1.0254013713
 O         -1.2661533158       -2.3458868628       -1.0574414632
 O         -3.5735691628       -3.0113189755       -1.5269986341
 C         -3.1732215245       -1.5006724786        0.6102629450
 C         -2.2459348241       -1.2543373390        1.6012342224
 C         -2.6913915870       -0.8186375299        2.8399869803
 C         -4.0462742627       -0.6383842860        3.0668046522
 C         -4.9672465270       -0.8989223974        2.0628647983
 C         -4.5285551432       -1.3309802580        0.8227937545
 H         -5.2130004285       -1.5557848998        0.0210148576
 H         -6.0215272286       -0.7637311722        2.2425497320
 H         -4.3852233202       -0.2959803900        4.0317964734
 H         -1.9662438646       -0.6182101753        3.6127453009
 H         -1.1939886634       -1.3941122556        1.4064724037
 H         -3.8679071628       -0.7226681786       -2.4411484067
 H         -4.2532610232        1.6290416837       -2.4432151969
 H         -3.5297630053        3.8415372199       -1.6287165111
 H         -1.4974810735        4.0704665767       -0.2725117350
 H         -0.0510889732        1.6911177577        1.5311069147
 C          0.8061832802        3.4380709182        0.6408572475
 C          0.3296866689        4.3755785821        1.7088575883
 C          1.6896750851        3.7552850496        1.8092099037
 H          2.5576550734        4.3763467948        1.6463075009
 H          1.8439246155        2.9740371263        2.5393811855
 H          0.2656048922        5.4283552659        1.4783800706
 H         -0.4371377735        4.0213913301        2.3809575167
 H          1.0822976523        3.8527037947       -0.3219830437
