  62
        -98.93841011
 C         -1.7705159682       -0.6780680370       -0.0077160914
 C         -2.9085613711       -1.2890653817        0.5665663963
 C         -4.2084835368       -0.9578540195       -0.0420333478
 C         -4.2410602676       -0.1197253034       -1.0927586930
 C         -5.4563358199        0.3892496255       -1.8176755820
 C         -5.9110932927        1.7376872317       -1.2336234667
 C         -6.8681428941        1.6360304900       -0.0464069317
 H         -7.0036382638        2.6455934833        0.3484523255
 H         -7.8415687111        1.2893000930       -0.3995633295
 C         -6.4063426980        0.7210374621        1.0908466152
 H         -5.3445567781        0.8835653705        1.2848140102
 H         -6.9475669057        1.0104108251        1.9937931871
 C         -6.6655120427       -0.7669454236        0.8117885525
 H         -7.1911198848       -1.2073827707        1.6615511915
 H         -7.3333772834       -0.8569135580       -0.0447048033
 C         -5.4089713950       -1.6192011848        0.5786197881
 H         -5.6770511517       -2.4921457948       -0.0256864103
 H         -5.0469323633       -2.0033212894        1.5374665580
 H         -5.0165810602        2.2936596753       -0.9404614408
 H         -6.4073297488        2.3106499438       -2.0196216121
 H         -6.2579407443       -0.3427386342       -1.7887717074
 H         -5.1569665148        0.5437177574       -2.8563978918
 O         -3.1179778452        0.4412511539       -1.6214490269
 C         -1.8614437554        0.1874633934       -1.0970320657
 O         -0.9315906906        0.7789559176       -1.6777419327
 O         -2.8434787948       -2.0694448564        1.5548800975
 C         -0.4032951549       -0.9749246999        0.5800164345
 C          0.2755999476        0.3021872394        1.0071193054
 C         -0.4327907545        1.2085130674        1.7926836660
 C          0.1477654170        2.3911935219        2.2053103769
 C          1.4492446617        2.6951855739        1.8462966343
 C          2.1714268619        1.7923199285        1.0758725460
 C          1.5870803802        0.5992598457        0.6704186652
 H          2.1611518423       -0.0815792952        0.0650943107
 N          3.5076793855        2.0538054056        0.7493647211
 S          4.2138023941        1.4928983507       -0.6563321744
 O          5.4204032155        2.2852340194       -0.7788995431
 O          3.3158661050        1.5343154372       -1.7856059335
 C          4.6730915370       -0.1876924732       -0.2876773647
 C          4.5728742458       -1.1396763853       -1.2825976351
 C          4.9770742076       -2.4382419077       -1.0131103965
 C          5.4711632685       -2.7605834409        0.2415222630
 C          5.5651765007       -1.7925573282        1.2297460369
 C          5.1682396324       -0.4915637844        0.9650977628
 H          5.2288459160        0.2851626129        1.7086842333
 H          5.9476445327       -2.0477005687        2.2048329239
 H          5.7816257124       -3.7723709967        0.4491451708
 H          4.9042089682       -3.1912937519       -1.7819899215
 H          4.1691614594       -0.8480183625       -2.2395934330
 H          3.8438239088        2.9706629370        1.0038082438
 H          1.9023692728        3.6233449635        2.1596382917
 H         -0.4176123586        3.0870651022        2.8069440162
 H         -1.4521070450        0.9739874982        2.0681943848
 H         -0.6005155285       -1.5753322389        1.4810649837
 C          0.4182776694       -1.8057925953       -0.3828303428
 C          1.4350383503       -2.7741425697        0.1416212850
 C          0.1612733999       -3.2797557806       -0.4641816753
 H          0.2010170147       -3.7564347396       -1.4320746223
 H         -0.5949340426       -3.6857032146        0.1917249372
 H          2.3546368634       -2.9048845657       -0.4081532277
 H          1.5486862266       -2.8441463328        1.2126791429
 H          0.6334432087       -1.2814912188       -1.3082658145
