  62
        -98.94143338
 C         -2.6193252595       -1.1274761308        0.3610904102
 C         -2.3486813878       -0.3841059550       -0.8158865210
 C         -3.0001428267        0.9328066788       -0.9067767277
 C         -3.7908609446        1.3543480470        0.0955366007
 C         -4.4615330803        2.6953243132        0.1575746212
 C         -3.5752626263        3.7229090099        0.8755416546
 C         -2.1327689465        3.7591568275        0.3686833988
 H         -1.6099985109        4.5400546359        0.9258667937
 H         -1.6385575405        2.8143007792        0.6101268434
 C         -1.9940838428        4.0265846735       -1.1364510428
 H         -2.9186262723        4.4582507106       -1.5224825547
 H         -1.2015760948        4.7624897627       -1.2877619583
 C         -1.6215134837        2.7979121545       -1.9687719582
 H         -0.7411722453        2.3125159874       -1.5359984759
 H         -1.3411026714        3.1397123104       -2.9689519097
 C         -2.7280242633        1.7485659547       -2.1386802739
 H         -3.6413589825        2.2321067037       -2.4918270082
 H         -2.3945431882        1.0391296741       -2.9016620726
 H         -4.0259907875        4.7099810660        0.7589270024
 H         -3.5568270662        3.4810589066        1.9408257795
 H         -4.6822290977        3.0328634573       -0.8529864104
 H         -5.3969682017        2.5877388102        0.7092149528
 O         -4.0250492887        0.6156904962        1.2107023411
 C         -3.4215797714       -0.6198120799        1.3851200338
 O         -3.6695689695       -1.1576441756        2.4835450740
 H         -0.2926957667       -0.7528524259        1.7571886703
 C          0.2317958431       -1.3573608265        1.0248888731
 C         -0.4734105913       -2.3324530819        0.3290956574
 C          0.2043526915       -3.0927767450       -0.6130659609
 C          1.5484927472       -2.8673169413       -0.8561222045
 C          2.2423784187       -1.8875602917       -0.1700488997
 C          1.5734918952       -1.1224577136        0.7766843661
 N          2.2717568038       -0.1158029267        1.4781418918
 S          2.8932511601        1.1380166886        0.5400006739
 O          3.0323995788        2.2551135571        1.4503895061
 O          2.0932533848        1.3694134873       -0.6400759305
 C          4.5113000646        0.5503329087        0.0888399076
 C          4.8489852695        0.4090052509       -1.2425618680
 C          6.1149467896       -0.0549922528       -1.5657366988
 C          7.0140785576       -0.3674297491       -0.5575070854
 C          6.6593994700       -0.2173000824        0.7751255056
 C          5.3963360466        0.2471516197        1.1051119391
 H          5.0797386328        0.3816586661        2.1258767056
 H          7.3613088518       -0.4615731894        1.5560598504
 H          7.9972595029       -0.7305339068       -0.8120526925
 H          6.3924603378       -0.1725957465       -2.6009209349
 H          4.1127471681        0.6562277729       -1.9907909354
 H          1.7332535391        0.2776278876        2.2377904771
 H          3.2867823247       -1.7052768922       -0.3644830891
 H          2.0618328224       -3.4590100260       -1.5986254575
 H         -0.3271468382       -3.8392373823       -1.1799008389
 C         -1.9467088884       -2.4651302349        0.6280719421
 H         -2.0556885003       -2.6227069784        1.7142901738
 C         -2.6040839081       -3.6586778207       -0.0461976976
 C         -4.0748357718       -3.6612634066       -0.3359641302
 C         -3.0890454730       -3.6233186494       -1.4628944263
 H         -2.9690109588       -4.5121897922       -2.0650523615
 H         -2.9644439162       -2.7038607396       -2.0116697404
 H         -4.6294896018       -2.7620122952       -0.1091427344
 H         -4.6300609880       -4.5712034945       -0.1645795188
 H         -2.1832491602       -4.5973161551        0.3012566530
 O         -1.6066707369       -0.7850567442       -1.7478046095
