  62
        -98.94045691
 C         -2.5366316721       -1.2648586303        0.1188193615
 C         -3.4047213678       -0.6230064893        1.0415935199
 C         -4.3690133965        0.3274266518        0.4793203822
 C         -4.4077565242        0.5258897012       -0.8503144013
 C         -5.3513530596        1.4396073947       -1.5841217413
 C         -4.8966791904        2.9050404528       -1.6249232863
 C         -5.0148036919        3.6601209546       -0.3003291430
 H         -4.8746045882        4.7198048229       -0.5227189396
 H         -6.0240095542        3.5413806025        0.0950824773
 C         -3.9900184565        3.2393582301        0.7625142090
 H         -3.1736214894        2.6915478865        0.2858060032
 H         -3.5526254155        4.1299507896        1.2192338638
 C         -4.5632024174        2.3857420975        1.8938980057
 H         -5.2869389411        2.9717528495        2.4645737908
 H         -3.7447816255        2.1134114692        2.5651420516
 C         -5.2427912370        1.0917988314        1.4272048186
 H         -5.4155471919        0.4600127501        2.3017900755
 H         -6.2024222696        1.3167143434        0.9621995471
 H         -3.8618818649        2.9402385681       -1.9737065014
 H         -5.5144471496        3.4165979280       -2.3666662977
 H         -5.4092129299        1.0680816246       -2.6095648007
 H         -6.3432937229        1.3775596849       -1.1356442920
 O         -3.5751510092       -0.1216480246       -1.7060461045
 C         -2.6058120816       -1.0093019287       -1.2509778800
 O         -1.9010194023       -1.4796579020       -2.1649950468
 H         -0.0527814506       -0.7595050981       -1.0006511858
 C          0.4261589164       -0.8593572533       -0.0371485387
 C         -0.2021268924       -1.5916613302        0.9609031292
 C          0.4356832298       -1.7243197910        2.1884633859
 C          1.6708111168       -1.1387728054        2.4069380455
 C          2.2929177781       -0.4102754189        1.4090776963
 C          1.6642392194       -0.2719210085        0.1783796726
 N          2.2871022461        0.4708836348       -0.8427456822
 S          3.8405479332        0.0000706999       -1.2862848513
 O          3.9981030045        0.4370795749       -2.6558974641
 O          4.0556563771       -1.4050700848       -1.0282911332
 C          4.8959890368        0.9819983654       -0.2412029909
 C          4.7996515975        2.3568713017       -0.3309211634
 C          5.6149452206        3.1385874777        0.4717265844
 C          6.5096604453        2.5355496345        1.3434289780
 C          6.5975547268        1.1538841382        1.4184040634
 C          5.7840175719        0.3660041746        0.6187329028
 H          5.8143217731       -0.7116094589        0.6452349081
 H          7.2945817074        0.6872867898        2.0957832518
 H          7.1427035979        3.1464588414        1.9674049540
 H          5.5500748237        4.2132804744        0.4152872986
 H          4.0953399896        2.7840191400       -1.0252106732
 H          1.7093795426        0.5666914387       -1.6663905917
 H          3.2539772935        0.0489372852        1.5731019758
 H          2.1541747240       -1.2492100317        3.3654658487
 H         -0.0476830967       -2.2834817093        2.9761491401
 C         -1.5357159425       -2.2457487736        0.7034749202
 H         -1.9603382295       -2.5220198143        1.6816644021
 C         -1.4115982050       -3.5264608348       -0.1121656392
 C         -0.1943488531       -3.9031277746       -0.8974980774
 C         -0.5259600442       -4.6398384820        0.3635582665
 H         -0.8856377673       -5.6550476799        0.2933522929
 H          0.0936483136       -4.4468435899        1.2262996376
 H          0.6544933541       -3.2363423771       -0.8922354879
 H         -0.3458704542       -4.3951189147       -1.8464633186
 H         -2.3630136994       -3.8173342722       -0.5468251845
 O         -3.3785594377       -0.8459110668        2.2808702526
