  62
        -98.94354077
 C         -1.8437052840       -0.8274290629        0.7775697129
 C         -2.1225655942       -0.4313595892       -0.5528018111
 C         -3.5417115569       -0.4433774698       -0.9366393932
 C         -4.4641992074       -0.8436960793       -0.0425632194
 C         -5.9456821289       -0.8482932027       -0.2827819782
 C         -6.5820200822        0.4773683861        0.1583301420
 C         -5.8602193973        1.7158209678       -0.3731228986
 H         -6.4137665965        2.5898974415       -0.0230515531
 H         -4.8640573696        1.7673498092        0.0725034626
 C         -5.7330325549        1.7693201413       -1.9019782221
 H         -5.9888835492        2.7760358840       -2.2391281077
 H         -6.4490060218        1.0839952269       -2.3571076401
 C         -4.3311289992        1.4641544877       -2.4331210038
 H         -3.5976989924        2.0840819088       -1.9109996328
 H         -4.3008874953        1.7417859631       -3.4900958005
 C         -3.8830952778        0.0006570914       -2.3311092526
 H         -4.6435383837       -0.6489134643       -2.7690848494
 H         -2.9621061987       -0.1053788182       -2.9115878133
 H         -7.6216090043        0.4893123908       -0.1741217082
 H         -6.5740873600        0.5187516272        1.2500921275
 H         -6.1370664131       -1.0214408585       -1.3398773633
 H         -6.3858859599       -1.6623214433        0.2955542688
 O         -4.1526610741       -1.2466149699        1.2164739869
 C         -2.8411757559       -1.2329003997        1.6630561239
 O         -2.6954330902       -1.5958286185        2.8484030867
 H          2.0882150806       -0.1066140693        0.3643953293
 C          1.4816311957        0.7408964415        0.6352956058
 C          0.1947394979        0.5532720316        1.1140436661
 C         -0.5520552833        1.6730030565        1.4721379693
 C         -0.0321049152        2.9443601575        1.3309619659
 C          1.2514230475        3.1273650262        0.8467417757
 C          2.0116248382        2.0175125960        0.5015697022
 N          3.3078301146        2.1689964641       -0.0090027412
 S          4.5136261390        1.0859148612        0.3951871337
 O          4.3728077578        0.6099853536        1.7516223104
 O          5.7446421115        1.7874156195        0.0971503713
 C          4.3320463577       -0.2635924420       -0.7520999397
 C          3.9238362672       -0.0047951768       -2.0453895853
 C          3.8267128688       -1.0594681177       -2.9389865318
 C          4.1457836919       -2.3456953546       -2.5309373672
 C          4.5606207338       -2.5880451491       -1.2306602906
 C          4.6554894636       -1.5381989034       -0.3304353204
 H          4.9615792137       -1.6832513681        0.6935285436
 H          4.8081983978       -3.5891266630       -0.9144442851
 H          4.0684684042       -3.1641392463       -3.2292579510
 H          3.4997610001       -0.8751926813       -3.9497193575
 H          3.6768293979        1.0043483515       -2.3297599214
 H          3.6475849950        3.1183626853       -0.0511953460
 H          1.6592388858        4.1205277092        0.7349828612
 H         -0.6279355906        3.8022238687        1.6050764916
 H         -1.5531340038        1.5315017906        1.8574689758
 C         -0.4111163480       -0.8196682867        1.2775453408
 H         -0.4601276157       -1.0426394888        2.3540106884
 C          0.3808203183       -1.9130599563        0.5899293497
 C          1.5244440047       -2.5790234970        1.2922837600
 C          0.2407166362       -3.3220194772        1.0791360558
 H          0.2212847114       -4.1207277859        0.3532430440
 H         -0.4052081973       -3.4880950767        1.9292873550
 H          1.7625118085       -2.2446436007        2.2911204869
 H          2.3857702913       -2.8679629515        0.7091392275
 H          0.4573586834       -1.7588697724       -0.4804800749
 O         -1.2361041278       -0.0835327930       -1.3748851856
