  62
        -98.93743071
 C         -1.8516772245       -0.6541419908       -0.7565491053
 C         -2.1618649208       -0.0892803300        0.5019554209
 C         -3.5887569550       -0.0751832957        0.8746225626
 C         -4.4918299126       -0.5997862163        0.0280818108
 C         -5.9861881352       -0.6388771083        0.1921213966
 C         -6.6392591566        0.5746718455       -0.4910035444
 C         -6.7444565888        1.8253053329        0.3808914701
 H         -7.0993933503        2.6373373178       -0.2579547337
 H         -7.5000659745        1.6618436016        1.1522240620
 C         -5.4426946107        2.2643106978        1.0565059070
 H         -4.6162016497        2.1879207372        0.3477576436
 H         -5.5438706473        3.3181768850        1.3230444216
 C         -5.1193570267        1.4605269971        2.3248273959
 H         -5.9991352950        0.8872889435        2.6167505705
 H         -4.9130868464        2.1496722436        3.1463470831
 C         -3.9055898005        0.5253379834        2.2170821231
 H         -2.9984909329        1.0714721265        2.4943845930
 H         -4.0143741816       -0.2859684202        2.9446334561
 H         -6.0638678560        0.8007990609       -1.3924099806
 H         -7.6467757562        0.2980713055       -0.8083194240
 H         -6.3307202999       -1.5462612168       -0.3084124520
 H         -6.2581136117       -0.6935084577        1.2420265142
 O         -4.1458655969       -1.1442537869       -1.1719014166
 C         -2.8305723475       -1.1842683514       -1.5951612256
 O         -2.6615493706       -1.7133944016       -2.7130205854
 H          2.1225878926       -0.1254592120       -0.3072313671
 C          1.7162210339       -1.0288635059        0.1156245727
 C          0.4468022600       -1.4575457475       -0.2397065656
 C         -0.0363313989       -2.6398893099        0.3153395479
 C          0.7216311784       -3.3583736804        1.2186002072
 C          1.9875875277       -2.9256776819        1.5723231411
 C          2.4872590912       -1.7573197975        1.0119441115
 N          3.7619182840       -1.2870423931        1.3573347617
 S          4.7492749282       -0.5933037662        0.2007363457
 O          4.5545681841       -1.1930475237       -1.0985952463
 O          6.0837599362       -0.6991771841        0.7525615720
 C          4.2824786529        1.1242809023        0.1639308041
 C          3.9416116028        1.7557226419        1.3435411348
 C          3.6217586255        3.1036174116        1.3118636298
 C          3.6561822369        3.7961851094        0.1110238109
 C          4.0074074405        3.1493617094       -1.0636056772
 C          4.3242649737        1.7999487300       -1.0395656224
 H          4.5913328445        1.2549501741       -1.9311384812
 H          4.0341228278        3.6892825600       -1.9970083210
 H          3.4064131760        4.8453124433        0.0901129936
 H          3.3449568867        3.6091855851        2.2230164618
 H          3.9205424399        1.1881507254        2.2587527329
 H          4.2802466935       -1.8786536428        1.9899903150
 H          2.5823718559       -3.4870549231        2.2768179463
 H          0.3275981412       -4.2679451047        1.6468017543
 H         -1.0218849813       -2.9852714750        0.0328430494
 C         -0.4102381055       -0.7027614996       -1.2270810877
 H         -0.4158357240       -1.2705061771       -2.1698948822
 C          0.0872954758        0.7006289986       -1.5074532498
 C          1.1212914569        0.9445826650       -2.5637426174
 C         -0.2997934794        1.3588511462       -2.7964340288
 H         -0.5382451345        2.4116547437       -2.7874395139
 H         -0.8974658241        0.7809475435       -3.4867424513
 H          1.4996129311        0.0884304600       -3.1023234601
 H          1.8567340881        1.7158707716       -2.3917821056
 H          0.1108638576        1.3172262605       -0.6160936744
 O         -1.2926564169        0.3863452188        1.2780122185
