  62
        -98.93930715
 C         -1.4453781253       -1.2906130399       -0.6311799653
 C         -2.7309643403       -1.2181226909       -0.0398285315
 C         -3.5635287588       -0.0414239765       -0.3502265339
 C         -3.0658883945        0.8973775250       -1.1761062655
 C         -3.6942967261        2.1974273685       -1.6033868530
 C         -3.6348562040        3.2678229541       -0.5029989874
 C         -4.0287391636        2.7781440406        0.8879233143
 H         -3.3595494537        1.9669610661        1.1823926975
 H         -3.8607968495        3.6012343361        1.5879041680
 C         -5.4802538476        2.3263551744        1.0347217192
 H         -5.6442918005        2.1103591811        2.0935284314
 H         -6.1405655847        3.1512586236        0.7581827830
 C         -5.8837702863        1.0873730950        0.2314325487
 H         -6.0631628908        1.3347374143       -0.8114321658
 H         -6.8374526146        0.7355123761        0.6354454502
 C         -4.9094521243       -0.0817326657        0.3328303903
 H         -4.7069151536       -0.2905540897        1.3896142083
 H         -5.4046878644       -0.9831722334       -0.0479275765
 H         -2.6070560304        3.6360649750       -0.4445953686
 H         -4.2775486783        4.1002677265       -0.7953828362
 H         -3.1236164679        2.5531437414       -2.4641799927
 H         -4.7174756968        2.0326308987       -1.9278144181
 O         -1.8294698382        0.7835403698       -1.7335003911
 C         -0.9843356359       -0.2798240799       -1.4732415301
 O          0.1086005960       -0.1981570319       -2.0675772751
 H          1.2555848886       -0.5389594657        0.0259043303
 C          1.1400178913       -1.1111931712        0.9308549963
 C          0.2357183431       -2.1645331100        0.9641215300
 C          0.0895322122       -2.8883872315        2.1408934738
 C          0.8213019917       -2.5525705284        3.2661534523
 C          1.6935358182       -1.4808615616        3.2406673653
 C          1.8492100272       -0.7492707647        2.0662482614
 N          2.7345815900        0.3336713473        2.0291027595
 S          2.5196284214        1.6822766295        1.0565404186
 O          3.1081783414        2.7616192380        1.8254159039
 O          1.1399208655        1.8577423595        0.6731163539
 C          3.5808529679        1.3522157998       -0.3346461135
 C          3.0670775180        0.9801647791       -1.5592320799
 C          3.9480009871        0.7176326360       -2.5988791335
 C          5.3143384663        0.8316685159       -2.3997473804
 C          5.8142152570        1.2105790450       -1.1623796606
 C          4.9416447040        1.4729967053       -0.1203046558
 H          5.2850175603        1.7840482206        0.8522637241
 H          6.8774595797        1.3015201021       -1.0090630354
 H          5.9918892936        0.6257682700       -3.2134698386
 H          3.5520898386        0.4229114806       -3.5578273692
 H          2.0000712701        0.8894682752       -1.6953964972
 H          3.1402835650        0.5799902908        2.9195872437
 H          2.2486912333       -1.2030953724        4.1238219468
 H          0.6989260131       -3.1197869653        4.1764340090
 H         -0.6196548199       -3.7020760095        2.1764883700
 C         -0.5974543904       -2.4938876730       -0.2529184552
 H         -1.3160833863       -3.2721984631        0.0395918110
 C          0.2652228121       -3.0363707597       -1.3733469376
 C          0.7058621816       -4.4675440773       -1.3193335276
 C         -0.3150674514       -4.0347768269       -2.3275847691
 H         -0.0285019533       -3.9785943194       -3.3667951434
 H         -1.3422492209       -4.3329033737       -2.1746884686
 H          0.3707032640       -5.0638522927       -0.4842678097
 H          1.6980828724       -4.7125618327       -1.6651609272
 H          0.9584437927       -2.3105233839       -1.7764036620
 O         -3.1784550679       -2.1140723036        0.7279189545
