  62
        -98.93669405
 C          1.7451295217        0.7915920725       -0.1537974443
 C          2.8719417928        0.9060823691        0.7003239976
 C          4.0934669653        0.1781975128        0.3134668502
 C          4.0732337989       -0.5768311073       -0.7990756715
 C          5.1779573873       -1.4070871322       -1.4016869950
 C          6.0087634626       -2.2575111941       -0.4284843920
 C          7.4380535512       -1.7457214483       -0.2410835450
 H          8.0675376070       -2.5782329620        0.0810736262
 H          7.8158826832       -1.4075661819       -1.2082592676
 C          7.5966791224       -0.6238773929        0.7837181782
 H          7.4593928910       -1.0303285560        1.7881585685
 H          8.6248737405       -0.2601627016        0.7185824079
 C          6.6452595356        0.5615588003        0.6087671071
 H          7.0996402570        1.4277746101        1.0944179793
 H          6.5350162883        0.8104144705       -0.4460958860
 C          5.2640631509        0.3418973354        1.2438909994
 H          5.2971628996       -0.5152318434        1.9228532498
 H          5.0038585192        1.2048522639        1.8647346213
 H          5.5008809508       -2.3237987770        0.5325586941
 H          6.0639354938       -3.2691427863       -0.8340655061
 H          4.6816033355       -2.0538885153       -2.1288523177
 H          5.8362848898       -0.7468496738       -1.9718894020
 O          2.9662694207       -0.6670217697       -1.5873874079
 C          1.7890037013        0.0029108805       -1.3021283636
 O          0.8903238651       -0.2019123053       -2.1442471213
 O          2.8612530881        1.6048440496        1.7491422412
 C          0.5046293415        1.5702947305        0.2503489014
 C         -0.5237414868        0.6874270273        0.9157315963
 C         -0.9292118803        0.9210683584        2.2242218748
 C         -1.9001711533        0.1303942911        2.8150297438
 C         -2.4865151941       -0.9072503998        2.1132038973
 C         -2.0815916222       -1.1522066935        0.8074636896
 C         -1.1142143294       -0.3549214754        0.2151564209
 H         -0.8042281458       -0.5527742491       -0.8001117985
 N         -2.6872785534       -2.1965404320        0.0762523983
 S         -4.3484800174       -2.0512606789       -0.1081462662
 O         -4.9991629359       -2.4921391506        1.1003708297
 O         -4.6776783766       -2.7861696320       -1.3088010393
 C         -4.6118744406       -0.3021194520       -0.3378308829
 C         -5.1534039209        0.4519737647        0.6829395079
 C         -5.2717265397        1.8218683605        0.5120161063
 C         -4.8437021831        2.4105022837       -0.6674645113
 C         -4.3031288716        1.6384199227       -1.6842920135
 C         -4.1810479493        0.2687910921       -1.5188102805
 H         -3.7667191832       -0.3616846475       -2.2896896760
 H         -3.9712087295        2.0963974837       -2.6025090160
 H         -4.9319506046        3.4778243908       -0.7961914977
 H         -5.6916294955        2.4256282715        1.3001126136
 H         -5.4721477839       -0.0464701137        1.5834799431
 H         -2.2531586482       -2.3395758603       -0.8251309735
 H         -3.2500137038       -1.5299687942        2.5509487605
 H         -2.2042273878        0.3243179971        3.8321641319
 H         -0.4698760261        1.7234373910        2.7825827159
 H          0.8555751759        2.2947609362        0.9970663914
 C         -0.1281589501        2.3320772782       -0.8991339728
 C         -1.0238217183        3.4931745874       -0.5931936638
 C          0.3283131373        3.7275055386       -1.1958009331
 H          0.3904212322        4.0395628227       -2.2275463928
 H          1.1030093695        4.1437673673       -0.5683909758
 H         -1.8957827632        3.6448577352       -1.2095818837
 H         -1.1677336723        3.7524723593        0.4444148128
 H         -0.3852803145        1.7034288649       -1.7413798518
