  62
        -98.93303624
 C         -2.6129563600       -1.2599895100       -0.3698590477
 C         -2.4976190520        0.0414182804       -0.9087836558
 C         -3.6774409459        0.9226684168       -0.7798680179
 C         -4.7808739013        0.4484644530       -0.1730361360
 C         -6.0740448431        1.1667527391        0.1071468754
 C         -5.9631863177        2.1463900450        1.2867411105
 C         -4.7017025446        3.0059532362        1.2926302555
 H         -4.6902521430        3.5717174365        2.2281065564
 H         -3.8243787750        2.3561103334        1.2985961884
 C         -4.5884269379        4.0034852347        0.1422370048
 H         -5.4484485648        4.6765009057        0.1661175446
 H         -3.6923454811        4.6032136853        0.3212584681
 C         -4.4826367713        3.3993759585       -1.2595400362
 H         -5.4521797821        3.0618009598       -1.6155719504
 H         -4.1658267680        4.1996199166       -1.9348112902
 C         -3.4522939518        2.2827936869       -1.3957425741
 H         -3.2793605979        2.0971792544       -2.4627037354
 H         -2.4899549689        2.6331671278       -1.0053319229
 H         -5.9718410591        1.5636220420        2.2111332340
 H         -6.8449576584        2.7893805521        1.2853094006
 H         -6.4208440768        1.6747444932       -0.7877292387
 H         -6.8094460003        0.3999976958        0.3606567952
 O         -4.8455389504       -0.8173531768        0.3322286781
 C         -3.7803729785       -1.6901624091        0.2625034586
 O         -3.9896538434       -2.8044910543        0.7840366415
 H          0.8629966975       -0.8736406901       -1.0264920249
 C          0.7414242110       -1.0307857708        0.0335010422
 C         -0.3679829791       -1.7147610686        0.5035515544
 C         -0.5129283446       -1.8873321061        1.8775458167
 C          0.4288785037       -1.3843927333        2.7548518789
 C          1.5280572270       -0.6875170719        2.2832719974
 C          1.6783346326       -0.5042179575        0.9155043002
 N          2.7683107413        0.2390140528        0.4235691144
 S          4.3022213686       -0.1050669163        1.0369694209
 O          4.5708307547       -1.5239603883        0.9466543435
 O          4.4115938405        0.4707357549        2.3538476941
 C          5.3292313704        0.7989972063       -0.1038424175
 C          5.9419885576        0.1310144457       -1.1466638706
 C          6.7195712428        0.8522370842       -2.0391915810
 C          6.8670492439        2.2214233639       -1.8764282309
 C          6.2449389203        2.8778934853       -0.8247035275
 C          5.4674438717        2.1627160194        0.0719130003
 H          4.9718693353        2.6283833419        0.9076723774
 H          6.3633830650        3.9422693676       -0.7007777360
 H          7.4728559045        2.7800898631       -2.5722988657
 H          7.2066564576        0.3447103875       -2.8562228124
 H          5.8065005732       -0.9354912802       -1.2298188316
 H          2.7838159892        0.2515222868       -0.5875032719
 H          2.2690951169       -0.2885416086        2.9567393112
 H          0.3065357737       -1.5313083251        3.8177557391
 H         -1.3809560182       -2.4164340482        2.2473655003
 C         -1.4490652837       -2.2374766547       -0.4115591920
 H         -1.8297002859       -3.1741447672        0.0176841521
 C         -0.9852838006       -2.5052215850       -1.8276968798
 C         -0.0961529211       -3.6807756778       -2.0974225227
 C         -1.5219581685       -3.6974658937       -2.5584458959
 H         -1.7238240435       -3.6057962120       -3.6151401592
 H         -2.2223650591       -4.3313386146       -2.0343024519
 H          0.6823628652       -3.5817295096       -2.8384413286
 H          0.1739322645       -4.3034086332       -1.2576180243
 H         -0.8261847276       -1.6030390335       -2.4047795672
 O         -1.4607816610        0.4707818910       -1.4800222549
