  62
        -98.93462373
 C         -2.5935847568       -1.3545393970       -0.1193069089
 C         -2.4080105019       -0.1226426222       -0.7871963412
 C         -3.5917497799        0.7506926763       -0.8945805761
 C         -4.7625562112        0.3491623503       -0.3650827768
 C         -6.1310183426        0.9984247700       -0.3620963365
 C         -6.2986943314        2.4712011547       -0.7262995671
 C         -5.6810560996        3.4508879885        0.2709865474
 H         -5.7708286618        4.4589288667       -0.1395444899
 H         -6.2606307058        3.4160118277        1.1969100474
 C         -4.2207859816        3.1912715680        0.6336882327
 H         -3.9126758228        3.9563384390        1.3516891834
 H         -4.1322818741        2.2265396624        1.1378184746
 C         -3.2379741630        3.2311987733       -0.5349971522
 H         -3.3376461694        4.1795629166       -1.0667558205
 H         -2.2279412777        3.1869553772       -0.1170074003
 C         -3.3680228522        2.0826374951       -1.5504351202
 H         -4.1450741901        2.2877280957       -2.2828572424
 H         -2.4196139697        2.0029893001       -2.0898129749
 H         -7.3746499456        2.6637553326       -0.7533470587
 H         -5.9207089087        2.6575886467       -1.7271063007
 H         -6.7436773310        0.4012483965       -1.0464992626
 H         -6.5370673878        0.8296893114        0.6403002956
 O         -4.8912841367       -0.8545832725        0.2674320657
 C         -3.8245746643       -1.7205776358        0.4213195521
 O         -4.0947599021       -2.7651165417        1.0477398332
 H          1.1950925514       -1.7722473677       -0.6314282059
 C          0.9366373874       -1.4174134697        0.3537845994
 C         -0.3410566527       -1.6193806629        0.8467766601
 C         -0.6483219681       -1.1387357743        2.1175651836
 C          0.2991592916       -0.4710674905        2.8682193165
 C          1.5754388560       -0.2684197576        2.3711338205
 C          1.8916418004       -0.7412456520        1.1058703947
 N          3.1911425312       -0.5668590717        0.5941018503
 S          3.9662257168        0.9094926169        0.8623300512
 O          4.4606496669        0.9253975318        2.2167994775
 O          3.1052766902        2.0105333718        0.4922128949
 C          5.3321603511        0.7709062327       -0.2736847136
 C          5.2116944439        1.3037696342       -1.5431332724
 C          6.2683334699        1.1676609347       -2.4298234344
 C          7.4194332809        0.5024080844       -2.0350613066
 C          7.5252733432       -0.0269841482       -0.7574458112
 C          6.4731980159        0.1066697744        0.1345143570
 H          6.5131233790       -0.2795348948        1.1394940351
 H          8.4227428739       -0.5414635655       -0.4541255146
 H          8.2397668045        0.3983848944       -2.7275752130
 H          6.1896923781        1.5805399646       -3.4227119553
 H          4.3016266224        1.8204182478       -1.8043252016
 H          3.2444856302       -0.8197093151       -0.3836872553
 H          2.3202384690        0.2614445758        2.9423992377
 H          0.0444649953       -0.0998288700        3.8499785736
 H         -1.6480047033       -1.2896213974        2.5035295369
 C         -1.4281718133       -2.3116492483        0.0604331528
 H         -1.8104962528       -3.1428607961        0.6698439775
 C         -0.9771599278       -2.8555812287       -1.2783263318
 C         -0.2372933912       -4.1568722739       -1.3472463439
 C         -1.6534180209       -4.0730723930       -1.8300698970
 H         -1.8415795690       -4.1209455375       -2.8921563377
 H         -2.4296001087       -4.5244696440       -1.2293326509
 H          0.5468956396       -4.2677260370       -2.0808187529
 H         -0.0483859917       -4.6723052820       -0.4178417370
 H         -0.7104289619       -2.0738518338       -1.9800882788
 O         -1.3084274021        0.2353404840       -1.2860332322
