  62
        -98.94521585
 C         -1.4876268197       -0.8032792303       -0.5316479399
 C         -2.6167346899       -1.0133603099        0.3027330999
 C         -3.3398442099        0.1834244904        0.7473432893
 C         -2.8844400497        1.3953820702        0.3822674190
 C         -3.5396468297        2.7003808204        0.7291404083
 C         -4.5432376894        3.1249825001       -0.3522013021
 C         -5.5172681394        2.0187522900       -0.7577248519
 H         -6.1952659992        2.4397313098       -1.5031957022
 H         -4.9601639393        1.2158278498       -1.2456577815
 C         -6.3332566497        1.4346198905        0.4038700481
 H         -7.3754717196        1.3463506605        0.0901462179
 H         -6.3074833498        2.1167352208        1.2544096079
 C         -5.8857852999        0.0437104306        0.8574100088
 H         -5.8187747398       -0.6200035997       -0.0081994910
 H         -6.6541898401       -0.3608596291        1.5215100887
 C         -4.5520829801       -0.0158094992        1.6131574791
 H         -4.5607010302        0.7043195811        2.4342829988
 H         -4.4541648703       -1.0190562391        2.0383680195
 H         -5.1014615294        3.9880055902        0.0152191575
 H         -3.9854131291        3.4330328897       -1.2394552320
 H         -4.0422829299        2.6027192008        1.6896363582
 H         -2.7617978496        3.4614564903        0.8142869582
 O         -1.7902326595        1.5633306498       -0.3974827108
 C         -1.0627256795        0.4808060695       -0.8719913703
 O         -0.0953661493        0.8160135892       -1.5829787902
 H          1.3563335903       -0.5043756804       -0.2227269193
 C          1.3483733401       -1.4466463602        0.2986404410
 C          0.3485559500       -2.3716758103        0.0285821311
 C          0.3496036798       -3.5812642800        0.7120146215
 C          1.3215101295       -3.8510925697        1.6590586319
 C          2.2914821695       -2.9119308097        1.9544054618
 C          2.3003006198       -1.6967391300        1.2752934613
 N          3.2781744098       -0.7373845800        1.5657626212
 S          2.9874779800        0.9151499500        1.5173979005
 O          3.7975432898        1.4454647604        2.5971146205
 O          1.5776548900        1.2161169202        1.5763523501
 C          3.7279425304        1.4151542694       -0.0229329195
 C          2.9557328107        1.7123100391       -1.1262791598
 C          3.5904405910        2.0809199786       -2.3039442298
 C          4.9732438010        2.1471210584       -2.3584255995
 C          5.7350540207        1.8475758388       -1.2384168792
 C          5.1089034404        1.4780491093       -0.0603760992
 H          5.6601815202        1.2516273395        0.8371076110
 H          6.8109275207        1.9016583387       -1.2812690290
 H          5.4584455113        2.4353544881       -3.2777257695
 H          2.9913750312        2.3107860483       -3.1707851600
 H          1.8797705407        1.6485968492       -1.0686147400
 H          3.8817457796       -0.9763475797        2.3387483914
 H          3.0359555493       -3.1100080595        2.7107033620
 H          1.3128090593       -4.7934221896        2.1856098722
 H         -0.4305767003       -4.3013450300        0.5140687816
 C         -0.7389992997       -2.0515338105       -0.9706799693
 H         -1.4791073198       -2.8625822604       -0.9227784191
 C         -0.1834896294       -1.9953856111       -2.3787666192
 C          0.0667868407       -3.2794266014       -3.1095303286
 C         -1.0602225391       -2.3851116214       -3.5292829292
 H         -0.9704139289       -1.8340406918       -4.4531277994
 H         -2.0700345092       -2.6968922913       -3.3045736193
 H         -0.1801418495       -4.2003568712       -2.6033990783
 H          0.9346977308       -3.3466017017       -3.7469768884
 H          0.5108242708       -1.1814686412       -2.5378704893
 O         -3.0071274101       -2.1603908897        0.6529621302
