  62
        -98.94088342
 C         -2.3916143504       -1.2522502600        0.1207953994
 C         -2.2997607401        0.1601760000        0.0363682897
 C         -3.4351228499        0.9067067301        0.6010448899
 C         -4.4471174800        0.2524340402        1.1966448898
 C         -5.6574238999        0.8768818203        1.8362020299
 C         -6.7836639898        1.2125960508        0.8490096600
 C         -6.5108590595        2.4056749310       -0.0678174597
 H         -7.4564906895        2.6626793713       -0.5491891196
 H         -6.2082988993        3.2632563408        0.5339224705
 C         -5.4599994896        2.1417634510       -1.1552348398
 H         -5.3152892399        1.0648303510       -1.2682330400
 H         -5.8250358495        2.5172375313       -2.1138411897
 C         -4.1036777294        2.7992731706       -0.8987921396
 H         -3.4266659995        2.5194029107       -1.7103659197
 H         -4.2138824892        3.8858962006       -0.9153158493
 C         -3.4459576395        2.3956746601        0.4276016103
 H         -3.9595498694        2.8727168601        1.2621512704
 H         -2.4073505995        2.7367157199        0.4152616104
 H         -6.9929490300        0.3278696610        0.2432682498
 H         -7.6776205398        1.4312808309        1.4375415401
 H         -6.0369695201        0.1493090902        2.5568899298
 H         -5.3628755597        1.7781231101        2.3747188402
 O         -4.4709944104       -1.1021000298        1.3077293895
 C         -3.4610571105       -1.8803127699        0.7679034993
 O         -3.6223324008       -3.1057438499        0.9344660190
 O         -1.3388687699        0.7855239299       -0.4823826201
 C         -1.3144282106       -2.1761173202       -0.4250889508
 C          0.0415562895       -1.7229852606        0.0540966893
 C          0.4220753694       -1.9916550910        1.3654318992
 C          1.6450474295       -1.5633865714        1.8458733893
 C          2.5099933997       -0.8520784114        1.0323259295
 C          2.1290079898       -0.5589249310       -0.2697779205
 C          0.9083544496       -1.0096529606       -0.7568496606
 H          0.6147538997       -0.7637445603       -1.7654108605
 N          2.9926814599        0.1635882890       -1.1069347703
 S          3.8862642302        1.4404409186       -0.4922966300
 O          3.2196718904        2.1046698385        0.6032634602
 O          4.2042806504        2.2584364188       -1.6428028898
 C          5.3800595601        0.6581149781        0.0852054998
 C          6.0575515298       -0.1758628018       -0.7826759104
 C          7.2253569597       -0.7846685722       -0.3520172105
 C          7.6963178798       -0.5482966226        0.9309122095
 C          7.0078953600        0.2953885773        1.7888309197
 C          5.8382611101        0.9065354077        1.3640842799
 H          5.2673082903        1.5657573477        1.9988897800
 H          7.3756466900        0.4791950370        2.7856076698
 H          8.6051016697       -1.0241508029        1.2641322894
 H          7.7636904895       -1.4411071622       -1.0165634107
 H          5.6608869098       -0.3313242015       -1.7719170204
 H          2.5865200800        0.4015370593       -2.0000989502
 H          3.4589381998       -0.5036792417        1.4055670396
 H          1.9289573795       -1.7819420517        2.8642269493
 H         -0.2598841407       -2.5339180010        2.0064215091
 H         -1.5240080609       -3.1546166902        0.0356010689
 C         -1.3711089807       -2.3879236798       -1.9311546809
 C         -2.6914271907       -2.5389851393       -2.6245455809
 C         -1.8373926104       -1.3380728994       -2.8923813506
 H         -1.3410640404       -1.2676199093       -3.8497303106
 H         -2.1460212502       -0.3851105595       -2.4929082204
 H         -2.7876511509       -3.2879376991       -3.3959540511
 H         -3.5819566807       -2.4105905892       -2.0261683509
 H         -0.5700590308       -3.0363356299       -2.2733406010
