  62
        -98.94488151
 C         -1.9344542857       -0.4061092454       -0.6738309395
 C         -2.9808621941       -1.2733010639       -0.2773822396
 C         -4.3321631201       -0.7043526872       -0.3172726054
 C         -4.5099957349        0.5634600941       -0.7314196384
 C         -5.8288604370        1.2783993571       -0.8486958293
 C         -6.3217571420        1.8985001831        0.4660498609
 C         -6.8288697014        0.8995793440        1.5070051323
 H         -7.3407191387        1.4756053628        2.2805107899
 H         -7.5681996924        0.2424642327        1.0480277514
 C         -5.7271793054        0.0580545049        2.1661667054
 H         -5.8831952483        0.0364544271        3.2470891459
 H         -4.7568856605        0.5291617022        1.9922761008
 C         -5.6663704584       -1.3926999331        1.6880605443
 H         -6.5837957051       -1.9116664882        1.9742527517
 H         -4.8302409694       -1.8848371668        2.1912377992
 C         -5.4674586558       -1.5505704920        0.1749020198
 H         -5.2177718151       -2.5941664346       -0.0313946343
 H         -6.3866627578       -1.2996880059       -0.3537856510
 H         -7.1395974083        2.5791386673        0.2183872597
 H         -5.5127546881        2.4940444934        0.8954940358
 H         -6.5842448983        0.5937727118       -1.2354541861
 H         -5.6828364484        2.0813799233       -1.5744204100
 O         -3.4787024499        1.3594810082       -1.1213035428
 C         -2.1671511674        0.9059811257       -1.0856290501
 O         -1.3243484654        1.7504808126       -1.4435660757
 O         -2.7933653079       -2.4630644620        0.0926472262
 C         -0.5071089292       -0.9242936733       -0.6471923123
 C          0.3262458074       -0.0688498590        0.2735867404
 C         -0.0885775546        0.0806592699        1.5956850962
 C          0.6167334830        0.8800503122        2.4724976766
 C          1.7603795166        1.5387356254        2.0540901695
 C          2.1875384805        1.3919838093        0.7407290863
 C          1.4751238574        0.5858880344       -0.1389593585
 H          1.8208481983        0.5078909437       -1.1554014114
 N          3.3347251197        2.0633329673        0.2880681793
 S          4.4775153647        1.2706273152       -0.6377071200
 O          5.6410863425        2.1279876929       -0.5861274740
 O          3.9561226544        0.9809310054       -1.9482769290
 C          4.7963144345       -0.2388165411        0.2566978419
 C          5.6563797520       -0.1888171207        1.3367631007
 C          5.8622614198       -1.3365742999        2.0842731298
 C          5.2000281751       -2.5073149981        1.7464450198
 C          4.3405797328       -2.5408826684        0.6594118116
 C          4.1336159590       -1.3967947549       -0.0953580016
 H          3.4769294247       -1.3859052741       -0.9493090318
 H          3.8281645339       -3.4525723959        0.3964132467
 H          5.3563285669       -3.4000301199        2.3312480249
 H          6.5340610217       -1.3150470434        2.9272038971
 H          6.1587832193        0.7387130614        1.5587979037
 H          3.7801078999        2.6417129726        0.9853581985
 H          2.3092218810        2.1718874641        2.7345897998
 H          0.2772628346        0.9918092162        3.4912012544
 H         -0.9836598237       -0.4322253459        1.9206083714
 H         -0.5746963434       -1.9335152002       -0.2145293529
 C          0.0426699627       -1.0354187916       -2.0527218702
 C          1.0888084932       -2.0595016500       -2.3724998717
 C         -0.3108478076       -2.2343024338       -2.8788953987
 H         -0.5031127075       -2.0953486592       -3.9321956653
 H         -0.9307680887       -2.9890269585       -2.4173455658
 H          1.8649662246       -1.7999880190       -3.0776229517
 H          1.4124726325       -2.7062702925       -1.5707531742
 H          0.0902389860       -0.0797473790       -2.5634875435
