  62
        -98.93590736
 C         -2.5128193596       -1.0350066737        0.5733782969
 C         -2.4452362499        0.2267214668        1.2196328014
 C         -3.5734395383        1.1358330520        0.9937455432
 C         -4.6122473997        0.7313643685        0.2409861699
 C         -5.8497187419        1.5303606388       -0.0659941721
 C         -5.6890066878        2.4993560543       -1.2453629268
 C         -4.8232892826        3.7282780741       -0.9646639149
 H         -4.9742386711        4.4227127949       -1.7934034542
 H         -5.1759879522        4.2210994390       -0.0582590814
 C         -3.3221647764        3.4311270207       -0.8391633464
 H         -3.1058748482        2.4484382696       -1.2652185294
 H         -2.7548775233        4.1616221672       -1.4203591643
 C         -2.7831741746        3.4763968617        0.5910239224
 H         -1.7224127823        3.2102523443        0.5669250826
 H         -2.8657661742        4.4928797375        0.9826217274
 C         -3.4889456099        2.5201272910        1.5614836043
 H         -2.8992700570        2.4671376806        2.4801378810
 H         -4.4833444054        2.8948925425        1.8036690267
 H         -5.2764486805        1.9501381881       -2.0946683259
 H         -6.6882509358        2.8418379821       -1.5236303141
 H         -6.6306454171        0.8093388253       -0.3165146940
 H         -6.1576678874        2.0831642710        0.8218659814
 O         -4.6615354750       -0.5007840967       -0.3266515153
 C         -3.6091537282       -1.4026797429       -0.2080692815
 O         -3.7961209048       -2.4654182588       -0.8273996065
 O         -1.4874887986        0.5720620296        1.9643316830
 C         -1.3239575825       -1.9604394094        0.7652331079
 C         -0.3320419335       -1.7587854065       -0.3522948576
 C         -0.6993145486       -1.9456178962       -1.6826022137
 C          0.2169623927       -1.7362505695       -2.6961394897
 C          1.5066914106       -1.3253874303       -2.4069781425
 C          1.8824047392       -1.1322061070       -1.0830511955
 C          0.9639031197       -1.3560447254       -0.0656769306
 H          1.2628627480       -1.1845425875        0.9576142069
 N          3.1954894078       -0.7424304828       -0.7633712335
 S          3.4132139048        0.3896563684        0.4745252371
 O          3.3134815041       -0.2868020395        1.7426589405
 O          2.5390810301        1.5222603471        0.2676368016
 C          5.1093409719        0.8539026004        0.1776501755
 C          5.3869344798        2.0343788268       -0.4849060524
 C          6.7090035714        2.3687773949       -0.7336746203
 C          7.7249278228        1.5202369816       -0.3204744737
 C          7.4306411120        0.3388127287        0.3442837622
 C          6.1112634133       -0.0007658703        0.5974518809
 H          5.8346879261       -0.9024738843        1.1182926454
 H          8.2234101067       -0.3168090672        0.6664550621
 H          8.7527029221        1.7827733827       -0.5153406500
 H          6.9406145844        3.2880708575       -1.2470588535
 H          4.5642587783        2.6661163998       -0.7795621307
 H          3.7233765147       -0.4749365076       -1.5841394406
 H          2.2176805710       -1.1544536627       -3.2012401398
 H         -0.0787856667       -1.8856562275       -3.7237785495
 H         -1.7097807079       -2.2522165487       -1.9073109114
 H         -0.8452488240       -1.6063980634        1.6927689286
 C         -1.7147166526       -3.4163601524        0.9813235899
 C         -1.3108260452       -4.5323807919        0.0690140725
 C         -0.6713303296       -4.4032154384        1.4163951650
 H         -0.9212993420       -5.1186564888        2.1850777207
 H          0.3497874860       -4.0523918413        1.4538207455
 H         -2.0261579411       -5.3240074775       -0.0935938116
 H         -0.7169481288       -4.2968078890       -0.7995789434
 H         -2.6919217009       -3.5091131899        1.4436891651
