  62
        -98.94948234
 C         -1.1026527051        1.7121975443       -0.1252319753
 C         -1.7137365173        0.9108336503       -1.1183086595
 C         -2.8457166352        0.0897188866       -0.6752664088
 C         -3.2264338693        0.1213003152        0.6148080667
 C         -4.3599717599       -0.6601005427        1.2215182747
 C         -3.9880112366       -2.1027412517        1.5914155001
 C         -3.8617706835       -3.0660926556        0.4103779458
 H         -3.8430705057       -4.0763575732        0.8241876801
 H         -4.7480713884       -2.9871347607       -0.2208126108
 C         -2.5991939463       -2.8631792771       -0.4385712955
 H         -1.8622016837       -2.2995367224        0.1397704952
 H         -2.1464174827       -3.8351499409       -0.6517991706
 C         -2.8414755926       -2.1740619911       -1.7817939275
 H         -3.4632777881       -2.8158782019       -2.4105513579
 H         -1.8776643486       -2.0499190821       -2.2813987198
 C         -3.5121793666       -0.7978900438       -1.6839114315
 H         -3.4290095455       -0.3088267767       -2.6580244092
 H         -4.5683960100       -0.9140601846       -1.4410661835
 H         -3.0468380093       -2.0909366349        2.1475609962
 H         -4.7662391311       -2.4795480516        2.2596243269
 H         -4.6463447841       -0.1328509478        2.1341554102
 H         -5.2121207151       -0.6650770582        0.5406934288
 O         -2.6183364174        0.9099094664        1.5398073029
 C         -1.5367380302        1.7111348042        1.2011200164
 O         -1.0675147123        2.3668422940        2.1511222541
 H          0.5998682033        0.1742246142        0.6439830435
 C          1.4383846564        0.8440750749        0.7372029523
 C          1.3408971341        2.1358111420        0.2438321051
 C          2.4245559639        2.9901736365        0.4195379959
 C          3.5599272137        2.5545012697        1.0797336879
 C          3.6510858564        1.2623549685        1.5662665371
 C          2.5737159075        0.4007826358        1.3966155072
 N          2.6070563712       -0.9104644350        1.8873460236
 S          1.7257777715       -2.1316724759        1.1698296474
 O          0.3163830363       -1.9590093755        1.4180540975
 O          2.3160832399       -3.3429557569        1.6985798366
 C          2.0907712307       -1.9999404544       -0.5706572635
 C          1.1373180563       -1.5428008124       -1.4554743269
 C          1.4733660495       -1.3930853698       -2.7914716732
 C          2.7525404451       -1.7097116528       -3.2200616196
 C          3.6981511680       -2.1825295686       -2.3218120755
 C          3.3686938548       -2.3248917521       -0.9842376306
 H          4.0734005948       -2.6958220042       -0.2579233880
 H          4.6905041041       -2.4341741231       -2.6596610378
 H          3.0117111110       -1.5886177290       -4.2600070500
 H          0.7309045463       -1.0132607292       -3.4759514591
 H          0.1486166817       -1.3016372356       -1.0990011792
 H          3.4969420325       -1.2257408507        2.2415354185
 H          4.5368962002        0.9267079660        2.0828482220
 H          4.3902903736        3.2306193269        1.2150576950
 H          2.3744143293        3.9997473198        0.0452361786
 C          0.0966995833        2.5571045584       -0.5036879835
 H          0.2659972779        2.3583021109       -1.5737933599
 C         -0.2102825828        4.0325378229       -0.3296199692
 C          0.3202440320        5.0450847965       -1.2991776330
 C         -1.1367898990        4.6969851182       -1.3025050003
 H         -1.8462341455        5.4197156732       -0.9284463711
 H         -1.5168658624        4.0923480149       -2.1131491004
 H          0.6124217213        6.0138586269       -0.9226067480
 H          0.9227051910        4.6874033778       -2.1205876232
 H         -0.2949293156        4.3161716793        0.7133900216
 O         -1.3315674587        0.8830125437       -2.3198057999
