  62
        -98.93582266
 C          2.3772677640        0.4650216680        0.9085872652
 C          3.4235142847        1.0774797201        0.1735481566
 C          4.7328673031        0.4054324245        0.2432606625
 C          4.8712647216       -0.7112281388        0.9786962790
 C          6.1293420917       -1.5227728802        1.0838056222
 C          6.1706694234       -2.6241507658        0.0152166021
 C          5.8581059889       -2.1269300946       -1.3961707167
 H          5.9466747490       -2.9825194395       -2.0691739863
 H          4.8178901933       -1.7950825821       -1.4342775159
 C          6.7704301385       -0.9937594206       -1.8862259280
 H          7.0795618772       -1.2114864701       -2.9107056776
 H          7.6738705548       -0.9558105601       -1.2765826786
 C          6.1129632639        0.3873984179       -1.9033554452
 H          5.1596139805        0.3324678307       -2.4347555934
 H          6.7614461370        1.0657233922       -2.4641787521
 C          5.8630210331        1.0247742106       -0.5306737711
 H          6.7840779783        1.0106037258        0.0553225618
 H          5.5756171897        2.0671967431       -0.6963445965
 H          7.1609219527       -3.0830627500        0.0308801477
 H          5.4367323805       -3.3892555272        0.2788277743
 H          6.9896814462       -0.8650405974        0.9765195071
 H          6.1576578773       -1.9856004407        2.0716800779
 O          3.8485046185       -1.2618392981        1.6827344397
 C          2.5861106436       -0.6963609396        1.6574629954
 O          1.7411034952       -1.3078683516        2.3437606508
 H         -1.5340462110       -0.0108495014        1.0607116426
 C         -1.1536621890        0.0245683724        0.0501590344
 C          0.1266745876        0.4977542581       -0.1944520968
 C          0.5988024800        0.5047451065       -1.5033498315
 C         -0.2010076700        0.0555930799       -2.5382963787
 C         -1.4892106394       -0.3867291689       -2.2940218377
 C         -1.9677838759       -0.4035633632       -0.9893355997
 N         -3.2646044007       -0.8556407931       -0.7002863618
 S         -4.1111372939       -0.0574041261        0.5261352628
 O         -3.8699726836        1.3648494994        0.4415704612
 O         -3.8015095283       -0.6831706205        1.7871668033
 C         -5.7919028069       -0.4311069100        0.0636910873
 C         -6.5100361042        0.4894224931       -0.6761258257
 C         -7.8056421520        0.1779457805       -1.0576574925
 C         -8.3565088803       -1.0428970335       -0.6980446560
 C         -7.6234562226       -1.9561980714        0.0453789327
 C         -6.3279116170       -1.6509818740        0.4313048404
 H         -5.7236517619       -2.3241597497        1.0169825743
 H         -8.0562482789       -2.9028753537        0.3258546844
 H         -9.3649100331       -1.2829356561       -0.9960073531
 H         -8.3793246567        0.8872055045       -1.6321399451
 H         -6.0436800633        1.4292023515       -0.9247467999
 H         -3.8304043925       -0.9898394446       -1.5272073905
 H         -2.1169864146       -0.7223685117       -3.1054240912
 H          0.1774384670        0.0657988146       -3.5494655302
 H          1.5912486029        0.8797296928       -1.7013255190
 C          0.9603625238        1.0117765350        0.9509548715
 H          0.5219951369        0.6061244798        1.8778300110
 C          0.9067699127        2.5304111057        1.0633666015
 C          0.4820038721        3.4319312716       -0.0521464304
 C         -0.4175286877        3.2335578923        1.1285099929
 H         -0.5351498936        4.0435597328        1.8329085762
 H         -1.3123089909        2.6427242986        0.9889201998
 H          0.1974419143        2.9826930446       -0.9903167409
 H          1.0029897148        4.3708022349       -0.1605638261
 H          1.6877544432        2.9104282091        1.7149715578
 O          3.2954481445        2.1232471214       -0.5116842686
