  62
        -98.93444700
 C         -2.5454382189       -1.2331572275        0.2869075703
 C         -2.5183799594       -0.3234974659       -0.7969529712
 C         -3.4130837545        0.8467440936       -0.6955485077
 C         -4.1729567125        1.0130218016        0.4020550552
 C         -5.1968449928        2.0716715821        0.7551078637
 C         -5.2597028661        3.3861677458       -0.0188386079
 C         -4.0416806661        4.2927012007        0.1555074371
 H         -4.1554597538        5.1482792962       -0.5136864787
 H         -4.0339417879        4.6714447837        1.1808105433
 C         -2.6870342555        3.6372479128       -0.1031841119
 H         -1.9143227096        4.3949110920        0.0536850895
 H         -2.5149894762        2.8484559060        0.6326187343
 C         -2.4943441566        3.0604362058       -1.5045918055
 H         -1.4443462991        2.7700706901       -1.5988867231
 H         -2.6972246838        3.8316907386       -2.2499819518
 C         -3.3453375806        1.8218496083       -1.8351937983
 H         -4.3437357190        2.1013469785       -2.1625872712
 H         -2.8623499527        1.2941489826       -2.6626712556
 H         -5.4436184909        3.1951205361       -1.0719170393
 H         -6.1303367438        3.9277490364        0.3610135939
 H         -6.1727686197        1.5792593254        0.6789835605
 H         -5.0444346588        2.2885899725        1.8172541093
 O         -4.1434738296        0.1205938737        1.4365415393
 C         -3.3263114865       -0.9957201114        1.4182285773
 O         -3.3766815054       -1.6826444262        2.4589968794
 H         -0.1381610723       -0.5758090045        1.3892194918
 C          0.3870640753       -1.0699062904        0.5792787110
 C         -0.2542448523       -2.0895039083       -0.1148599899
 C          0.4306096126       -2.7184472912       -1.1452562765
 C          1.7148479702       -2.3215333495       -1.4760928796
 C          2.3409142534       -1.2945763001       -0.7950190400
 C          1.6674869564       -0.6613795775        0.2417588334
 N          2.2859984062        0.3988490508        0.9278739010
 S          3.8431471441        0.1724644023        1.5116102360
 O          4.0944048836       -1.2153596287        1.8251815191
 O          3.9760909272        1.1114332932        2.6045356019
 C          4.8865601939        0.6958515008        0.1675433413
 C          5.8561034059       -0.1554974377       -0.3250150817
 C          6.6619357887        0.2782417558       -1.3663540167
 C          6.4854613538        1.5487172421       -1.8926092593
 C          5.5088306816        2.3925314327       -1.3845505327
 C          4.7007857422        1.9655998200       -0.3430066375
 H          3.9328662545        2.5906907947        0.0815332049
 H          5.3740615247        3.3797211428       -1.7964724678
 H          7.1125984533        1.8837628697       -2.7036072225
 H          7.4218708788       -0.3758613681       -1.7625831179
 H          5.9526951150       -1.1367691639        0.1116444522
 H          1.7002377042        0.8248660142        1.6311336537
 H          3.3367740920       -0.9772380409       -1.0577299958
 H          2.2328594116       -2.8145175813       -2.2845959179
 H         -0.0476122741       -3.5045557516       -1.7056581544
 C         -1.6521000089       -2.4610491937        0.3192536233
 H         -1.6024543574       -2.7463608410        1.3840579104
 C         -2.2167904909       -3.6640078685       -0.4216762670
 C         -3.6947058961       -3.8333137468       -0.6065151083
 C         -2.8192166030       -3.5518252988       -1.7886274826
 H         -2.6412869908       -4.3508665935       -2.4934576730
 H         -2.8557450835       -2.5722030336       -2.2373186917
 H         -4.1137836289       -4.8223441824       -0.4965836833
 H         -4.3386128742       -3.0449424296       -0.2438773940
 H         -1.6565154831       -4.5689838397       -0.2070806742
 O         -1.7915756514       -0.4673050106       -1.8122691657
