  62
        -98.93367829
 C         -1.9626058518       -1.0894589477       -0.2703552812
 C         -2.4674997932       -0.3298135190        0.8155478606
 C         -2.6939982398        1.0992394942        0.5764020046
 C         -2.3777819240        1.6249357087       -0.6200308504
 C         -2.4544896116        3.0755884127       -1.0189536256
 C         -3.8604599698        3.7050949166       -1.0561950605
 C         -4.2693501307        4.4163161692        0.2396107298
 H         -3.3666994416        4.7096567844        0.7768665063
 H         -4.7962624509        5.3374929851       -0.0169920664
 C         -5.1858646262        3.6220075349        1.1747045470
 H         -5.1938624944        4.1266975658        2.1430805546
 H         -6.2045462327        3.6471400946        0.7813503991
 C         -4.8125384922        2.1545138739        1.3847105050
 H         -5.0864439376        1.5752148661        0.4998901288
 H         -5.4135178273        1.7641059580        2.2082704249
 C         -3.3201664985        1.9050400060        1.6774887643
 H         -2.7885209731        2.8463778526        1.8102051633
 H         -3.2106773658        1.3171915390        2.5910954448
 H         -4.5918261973        2.9421714150       -1.3212197785
 H         -3.8539686452        4.4409742061       -1.8618215657
 H         -2.0136892653        3.1232087426       -2.0171666777
 H         -1.8133485212        3.6513342858       -0.3468879457
 O         -1.8891231693        0.8674485083       -1.6377921300
 C         -1.6610723461       -0.4951649486       -1.4962856675
 O         -1.2107505869       -1.0274177412       -2.5306363941
 O         -2.7163452508       -0.8329252699        1.9456501761
 C         -1.6666453540       -2.5493561878        0.0216745496
 C         -0.2709162601       -2.6907254349        0.5872717713
 C         -0.0166600129       -3.5418822606        1.6567778919
 C          1.2536034865       -3.6347422200        2.1964871843
 C          2.2863508794       -2.8590847589        1.7016139566
 C          2.0431817171       -2.0102589274        0.6278260194
 C          0.7788262997       -1.9534511879        0.0612178314
 H          0.6168231557       -1.2966467606       -0.7804472060
 N          3.0573508013       -1.1968685373        0.0979974500
 S          2.6209870270        0.3586442653       -0.4068230304
 O          1.5970810838        0.8939725755        0.4622328801
 O          2.3251745433        0.3236571511       -1.8168419639
 C          4.1593932841        1.2251838382       -0.1460742975
 C          4.3607388847        1.8935962954        1.0468926311
 C          5.5707360761        2.5351552548        1.2604650809
 C          6.5548373434        2.4950467811        0.2840993866
 C          6.3378410269        1.8213652921       -0.9087760688
 C          5.1300028848        1.1782187754       -1.1289639824
 H          4.9107138732        0.6499193689       -2.0422431454
 H          7.1034709850        1.7950642840       -1.6671355217
 H          7.4954895157        2.9948968483        0.4526791705
 H          5.7400158845        3.0625879851        2.1853172250
 H          3.5624299824        1.9046042295        1.7717441300
 H          3.8951224097       -1.1880419960        0.6640557156
 H          3.2707733566       -2.9059865457        2.1416903843
 H          1.4364608976       -4.2987224431        3.0274732227
 H         -0.8274702647       -4.1164066695        2.0787029729
 H         -2.3715165375       -2.8397749309        0.8141366934
 C         -1.8550136947       -3.4875799374       -1.1531035455
 C         -2.2019666472       -4.9230073750       -0.8988280971
 C         -3.2268438975       -3.9952100948       -1.4771356348
 H         -3.5010323309       -4.1015120702       -2.5156309372
 H         -4.0391394760       -3.6724465412       -0.8421874037
 H         -1.7694220405       -5.6752985510       -1.5399795022
 H         -2.3281941010       -5.2366047873        0.1259955679
 H         -1.1986083985       -3.2658902575       -1.9846223490
