  62
        -98.93911170
 C         -2.1775426629       -0.9063969259       -0.0708560067
 C         -3.0103421142       -0.5974348418        1.0348128652
 C         -3.8269120932        0.6234839041        0.9369348697
 C         -3.7229476082        1.3871278812       -0.1641711001
 C         -4.4888419874        2.6393784664       -0.4905550158
 C         -5.7456258329        2.3111438488       -1.3147041142
 C         -6.9862388404        1.9699717774       -0.4900922344
 H         -7.3537136710        2.8761940479       -0.0041519042
 H         -7.7577790215        1.6362165290       -1.1877088357
 C         -6.7861303539        0.8896368783        0.5758466216
 H         -6.1875318447        0.0747025512        0.1649572541
 H         -7.7663277050        0.4779055003        0.8235970430
 C         -6.1316493647        1.4220716698        1.8593121473
 H         -6.7326277924        1.1262489606        2.7216500280
 H         -6.1378194294        2.5116027364        1.8378159203
 C         -4.7050868321        0.9189983467        2.1222850461
 H         -4.1863916408        1.6354302868        2.7682707383
 H         -4.7477698082       -0.0239853447        2.6763107970
 H         -5.5022504012        1.4768996550       -1.9777267964
 H         -5.9841871795        3.1700426885       -1.9452862989
 H         -3.8252673743        3.2586226938       -1.0980937579
 H         -4.7420525558        3.1833111294        0.4146121468
 O         -2.8980479839        1.0660378126       -1.1971607915
 C         -2.1094873602       -0.0717407177       -1.1857298625
 O         -1.4213120333       -0.2074130654       -2.2180550410
 O         -3.0779367490       -1.3238775224        2.0623002737
 C         -1.3325433833       -2.1665766413        0.0358202271
 C          0.0850475016       -1.7890009038        0.3926786619
 C          0.5462787301       -1.9355400007        1.6962939031
 C          1.8268823569       -1.5402355048        2.0399260610
 C          2.6704197724       -0.9853131631        1.0940547542
 C          2.2134278360       -0.8212360400       -0.2067076300
 C          0.9356482749       -1.2344557794       -0.5532159069
 H          0.5809359769       -1.0798296088       -1.5610478965
 N          3.0572111513       -0.2334807449       -1.1705966734
 S          3.6513331450        1.2972523087       -0.8031885411
 O          2.7681294562        2.0083196986        0.0934681305
 O          3.9175766616        1.9246092153       -2.0794628809
 C          5.2022228801        0.9601299768        0.0059936218
 C          6.1520607953        0.2348545990       -0.6866593804
 C          7.3653923199       -0.0351242041       -0.0742900314
 C          7.6082276214        0.4240656332        1.2118424911
 C          6.6460329675        1.1544375844        1.8922693723
 C          5.4296305288        1.4273292721        1.2856044079
 H          4.6492618108        1.9864208875        1.7770376363
 H          6.8363955076        1.5115111219        2.8916223695
 H          8.5531489544        0.2120036978        1.6866686464
 H          8.1162966362       -0.6019978177       -0.6005480066
 H          5.9241366599       -0.0987618011       -1.6851606374
 H          2.6438665920       -0.2232435934       -2.0931703435
 H          3.6669162101       -0.6686926163        1.3556414409
 H          2.1711107609       -1.6620563472        3.0555817416
 H         -0.1176815602       -2.3440196362        2.4444464996
 H         -1.7542556385       -2.7212021694        0.8845828123
 C         -1.4059427437       -3.0454487843       -1.1960446431
 C         -0.9910647773       -4.4811509303       -1.0864032269
 C         -2.4374893756       -4.1300699240       -1.2596496212
 H         -2.9103494237       -4.3346402619       -2.2085243350
 H         -3.0959580951       -4.2441837690       -0.4109342939
 H         -0.4675770640       -4.9306587458       -1.9160404100
 H         -0.6682097719       -4.8332748726       -0.1184638941
 H         -1.1826199471       -2.5239239368       -2.1175303057
