  62
        -98.93386392
 C         -2.5977568113       -0.7561024590        0.5910745658
 C         -2.8191192643       -0.1150909315       -0.6499170083
 C         -3.2266761712        1.3006868409       -0.5924168082
 C         -3.3719400183        1.9015448695        0.6034867711
 C         -3.8114014133        3.3057314702        0.9628221499
 C         -3.8048314970        4.4175870315       -0.0836918214
 C         -2.4198079913        4.8101520954       -0.5966755354
 H         -1.8732954489        5.2974827074        0.2146243403
 H         -2.5489100535        5.5418486482       -1.3971180183
 C         -1.5545302922        3.6614894247       -1.1101419045
 H         -1.3230927249        2.9804380799       -0.2883516458
 H         -0.6063154603        4.0842984129       -1.4528756054
 C         -2.1486883883        2.8586637336       -2.2662758678
 H         -1.3691620974        2.1847935427       -2.6326394183
 H         -2.4190807951        3.5325866499       -3.0813730588
 C         -3.3737808281        1.9957316685       -1.9147316559
 H         -3.4573554241        1.2068682860       -2.6678971406
 H         -4.2922910428        2.5766688507       -1.9458543492
 H         -4.2395907303        5.2979383089        0.3975355721
 H         -4.4568578643        4.1588336767       -0.9126089854
 H         -3.1827595108        3.6055683569        1.8072004201
 H         -4.8293912082        3.2085830044        1.3561855251
 O         -3.1626192513        1.2324115829        1.7764305254
 C         -2.7542839679       -0.0894450311        1.8032414083
 O         -2.5590029582       -0.5454402786        2.9490578637
 O         -2.6844956955       -0.6934374817       -1.7590471932
 C         -2.1345522851       -2.2003946014        0.6227346568
 C         -0.8452737007       -2.3456903118       -0.1514608664
 C         -0.6013438526       -3.3862222965       -1.0373935082
 C          0.6042332647       -3.4610758975       -1.7142434777
 C          1.5870726246       -2.5072582377       -1.5277877350
 C          1.3599931859       -1.4694528858       -0.6323895137
 C          0.1572099173       -1.4056445922        0.0547919532
 H         -0.0182598846       -0.5987865953        0.7570703957
 N          2.3384163189       -0.4713818494       -0.4447437533
 S          3.9276621858       -0.9799563685       -0.1782685203
 O          4.4836212738       -1.4221245015       -1.4317913712
 O          3.9718305243       -1.9389064927        0.9042244554
 C          4.6889097861        0.5537574082        0.3113483168
 C          4.9625761037        0.7872307570        1.6452065819
 C          5.5332372198        1.9968269433        2.0099226969
 C          5.8138580145        2.9477756895        1.0405423846
 C          5.5323485400        2.6985816181       -0.2947923556
 C          4.9645576926        1.4906027302       -0.6665989729
 H          4.7366878459        1.2495526896       -1.6916489028
 H          5.7537241426        3.4401536759       -1.0452801582
 H          6.2570214536        3.8882752536        1.3275504876
 H          5.7554175666        2.1921412421        3.0466957478
 H          4.7320127444        0.0171140385        2.3640016154
 H          2.0643733860        0.1828285477        0.2764848114
 H          2.5262897283       -2.5557624939       -2.0541055011
 H          0.7790667775       -4.2725701133       -2.4046481187
 H         -1.3561070197       -4.1371539728       -1.2037762901
 H         -1.9256174531       -2.4319576976        1.6780548449
 C         -3.2396209526       -3.1137311288        0.1340591205
 C         -3.3535312978       -4.5129737492        0.6576233114
 C         -4.3470658751       -3.4726619549        1.0770264689
 H         -5.3538433162       -3.5330183140        0.6919466034
 H         -4.2870590526       -3.0806286386        2.0822067810
 H         -3.6821400628       -5.2906293414       -0.0153261550
 H         -2.6229038439       -4.8369913327        1.3834934195
 H         -3.5030518077       -2.9285922201       -0.9009206924
