  62
        -98.94446698
 C         -2.6824631174       -1.1022303685        0.1511412572
 C         -2.5167629573       -0.1887864969       -0.9185927149
 C         -3.1456640928        1.1287967945       -0.7418677876
 C         -3.8628752889        1.3807665911        0.3673121486
 C         -4.5032763117        2.6965729627        0.6984824865
 C         -3.5580851558        3.5797343047        1.5250474526
 C         -2.1471065723        3.6916324326        0.9461909717
 H         -1.5824458482        4.3663976111        1.5933858082
 H         -1.6542773507        2.7173517437        0.9976482502
 C         -2.0899984647        4.2069263589       -0.4985418244
 H         -1.2927139518        4.9494411619       -0.5726840357
 H         -3.0259625789        4.7065789453       -0.7523529568
 C         -1.7894181946        3.1312557311       -1.5444348196
 H         -1.5484514673        3.6317918768       -2.4866731361
 H         -0.9018192929        2.5661529155       -1.2426501650
 C         -2.9293912495        2.1438610719       -1.8282964480
 H         -3.8495313199        2.6946192216       -2.0339324283
 H         -2.6612308240        1.5752616335       -2.7236178293
 H         -3.9982751134        4.5752438931        1.6052238725
 H         -3.4811377177        3.1589983675        2.5301452167
 H         -5.4060312152        2.5028660031        1.2801342427
 H         -4.7779580368        3.2038438111       -0.2241132237
 O         -4.0471914868        0.4614877120        1.3481172332
 C         -3.4365998841       -0.7780485269        1.2836393121
 O         -3.6473910234       -1.5025969625        2.2762101160
 O         -1.8837342125       -0.4386324161       -1.9797278091
 C         -1.9950772604       -2.4614166072        0.1824215241
 C         -0.5369491278       -2.2106469796        0.4825223271
 C         -0.0658894725       -2.2924758873        1.7889727967
 C          1.2403024933       -1.9513015549        2.0907390759
 C          2.0969683934       -1.5006833960        1.1013387814
 C          1.6317133334       -1.4063805019       -0.2029168401
 C          0.3345371056       -1.7867844000       -0.5103308020
 H         -0.0202204092       -1.6871258211       -1.5244574542
 N          2.4808168517       -0.8893844247       -1.2065923316
 S          2.9308250161        0.7177448021       -0.9674565356
 O          1.9417932222        1.4382372548       -0.1983575253
 O          3.2313546045        1.2385955997       -2.2835725767
 C          4.4461505907        0.5805439767       -0.0419312195
 C          4.5596343934        1.1863713876        1.1936852106
 C          5.7501529150        1.0624537744        1.8934098953
 C          6.7994623369        0.3389634560        1.3477412031
 C          6.6699708019       -0.2617706975        0.1041180601
 C          5.4832876711       -0.1406864643       -0.6008400864
 H          5.3402716205       -0.5880672177       -1.5701662146
 H          7.4880833143       -0.8238262733       -0.3165814119
 H          7.7235810131        0.2426231877        1.8954012850
 H          5.8524950323        1.5287718781        2.8601622642
 H          3.7136340140        1.7319885755        1.5804639784
 H          2.0788187885       -0.9801517142       -2.1303746885
 H          3.1091598833       -1.2108176987        1.3327213400
 H          1.5913905408       -2.0231105087        3.1089170901
 H         -0.7447738354       -2.6017311536        2.5711773016
 H         -2.4311326898       -2.9981576401        1.0348675821
 C         -2.2229940599       -3.2797279251       -1.0710828428
 C         -1.9159640926       -4.7460819675       -1.0430561342
 C         -3.3386598627       -4.2790138300       -1.0973386329
 H         -3.8911530091       -4.4083677324       -2.0158901980
 H         -3.9434043724       -4.3766608910       -0.2074885443
 H         -1.4896728231       -5.2002795463       -1.9243038398
 H         -1.5544634166       -5.1611957363       -0.1144384565
 H         -2.0263801523       -2.7389092065       -1.9871752327
