  62
        -98.94012839
 C          1.7226647715        1.2378035511       -0.6452738242
 C          1.5345798946        0.2251108540        0.3290358810
 C          2.7557221244       -0.2512228765        0.9972178002
 C          3.9449884386        0.3045298939        0.7088962496
 C          5.2700588143       -0.0663736642        1.3173764031
 C          5.9440460286       -1.2756989855        0.6544204157
 C          5.2972744305       -2.6286386933        0.9549237650
 H          5.1871181664       -2.7455840433        2.0335175810
 H          5.9924204696       -3.3982399178        0.6134746770
 C          3.9413465803       -2.8498393318        0.2699311491
 H          3.9187753512       -3.8450534122       -0.1795101529
 H          3.8223924144       -2.1287907009       -0.5420001897
 C          2.7356086675       -2.7468595697        1.2044855325
 H          2.7744667988       -3.5494004539        1.9444368836
 H          1.8274233224       -2.8817612712        0.6113831931
 C          2.6238023807       -1.4066220846        1.9431267725
 H          3.3776181384       -1.3452669318        2.7279783593
 H          1.6342944712       -1.3472968486        2.4048200300
 H          6.9775577659       -1.3053594360        1.0070771140
 H          5.9664629980       -1.1142964181       -0.4258155214
 H          5.1428325181       -0.2575758732        2.3834180591
 H          5.9220074580        0.8013841578        1.1954251149
 O          4.0756288237        1.3179843725       -0.1880392765
 C          2.9802859031        1.7985406388       -0.8874394678
 O          3.2517291900        2.7213399216       -1.6818402937
 O          0.4220349764       -0.2739385726        0.6315189943
 C          0.5635098632        1.8264406644       -1.4326288562
 C         -0.5380816161        2.2467972997       -0.4919254387
 C         -0.3635169881        3.4100697786        0.2526791777
 C         -1.3446036313        3.8499629807        1.1198333457
 C         -2.5155129181        3.1281621906        1.2676767342
 C         -2.6937983403        1.9562473275        0.5437305079
 C         -1.7118953208        1.5243315228       -0.3381808496
 H         -1.8595232321        0.6099915701       -0.8888517635
 N         -3.8819402452        1.2064916787        0.6714070314
 S         -3.7583970092       -0.3441149563        1.3210373636
 O         -5.0986075782       -0.6302547220        1.7962979361
 O         -2.7158055000       -0.4186447187        2.3170395257
 C         -3.4210694967       -1.4055236655       -0.0645303511
 C         -2.1927331348       -2.0223092221       -0.1852092752
 C         -1.9875022173       -2.8868179911       -1.2501486409
 C         -3.0007135124       -3.1098432066       -2.1696538461
 C         -4.2255285532       -2.4723099413       -2.0371310471
 C         -4.4422558307       -1.6146768337       -0.9714310287
 H         -5.3830782847       -1.1128994005       -0.8176343532
 H         -5.0095261196       -2.6452070737       -2.7567504649
 H         -2.8326184164       -3.7841010864       -2.9949876337
 H         -1.0335577553       -3.3786650598       -1.3579942512
 H         -1.4186552210       -1.7955180498        0.5305910466
 H         -4.6086705994        1.7011562756        1.1719356611
 H         -3.2858507311        3.4644051764        1.9462771291
 H         -1.1972171028        4.7571189204        1.6866042264
 H          0.5570309408        3.9672742419        0.1403931237
 H          0.9732925824        2.7422742967       -1.8888526000
 C          0.0709803171        0.9588954994       -2.5811537534
 C          1.0580802389        0.2671708670       -3.4733302323
 C          0.1589520198       -0.5353939890       -2.5843705462
 H         -0.6503380220       -1.0886895063       -3.0375843782
 H          0.5856627335       -1.0180384021       -1.7202918479
 H          0.8765964200        0.2593105025       -4.5373434437
 H          2.1028082626        0.3472104469       -3.2086165458
 H         -0.7956967458        1.3952500844       -3.0682238128
