  62
        -98.94011059
 C          2.4332422802        0.8565964396        0.0148175386
 C          2.7437122699       -0.5076870604        0.2310039990
 C          4.1402654300       -0.7910189505        0.5865938788
 C          5.0175278602        0.2210534494        0.7161027983
 C          6.4661964502        0.0945832092        1.1031514780
 C          7.3998843399       -0.2324100314       -0.0701875321
 C          7.2999528895       -1.6629877215       -0.6007968216
 H          8.1511115094       -1.8177860519       -1.2668180217
 H          7.4027451296       -2.3644868713        0.2276088686
 C          6.0080333693       -1.9624418615       -1.3739617312
 H          5.5298766894       -1.0236407715       -1.6630785014
 H          6.2507497690       -2.4944776219       -2.2966363111
 C          4.9958141493       -2.8175994411       -0.6114345607
 H          5.4157449792       -3.8098169011       -0.4319616405
 H          4.1073087592       -2.9359581011       -1.2369942705
 C          4.5518296397       -2.2249237106        0.7324632592
 H          3.6815185897       -2.7845123103        1.0839979095
 H          5.3505321998       -2.3198237105        1.4677605490
 H          7.2010003399        0.4719486684       -0.8811628423
 H          8.4237396800       -0.0649853915        0.2719516376
 H          6.7613319105        1.0604651293        1.5186905976
 H          6.5734022603       -0.6649527006        1.8779540882
 O          4.6702859204        1.5222802694        0.5246275279
 C          3.3821641404        1.8691290595        0.1517569481
 O          3.2065230706        3.0939216595       -0.0138620723
 O          1.9022743197       -1.4389806702        0.1382328495
 C          1.0265271002        1.2572975198       -0.3849012212
 C          0.0202847303        0.8103045303        0.6484014791
 C          0.3134826306        0.9645591507        2.0010993590
 C         -0.5991728493        0.5934942112        2.9691549093
 C         -1.8354578494        0.0848328013        2.6114727298
 C         -2.1416787997       -0.0659911391        1.2649959899
 C         -1.2143531199        0.2896382304        0.2947379696
 H         -1.4816026001        0.1597088102       -0.7407036903
 N         -3.3828923399       -0.5853450189        0.8632611003
 S         -4.0981041601        0.0575826707       -0.5256196297
 O         -3.6039195205       -0.6528438597       -1.6780371996
 O         -3.9407014798        1.4941487907       -0.5433391402
 C         -5.8065302401       -0.3701225188       -0.2411178092
 C         -6.2404951405       -1.6425142889       -0.5624788087
 C         -7.5608280205       -1.9822933085       -0.3135347283
 C         -8.4202414602       -1.0504197182        0.2495637315
 C         -7.9708746198        0.2231114019        0.5650256210
 C         -6.6513499098        0.5691930715        0.3198465506
 H         -6.2599607696        1.5495048615        0.5398451502
 H         -8.6421357596        0.9465698521        0.9990422709
 H         -9.4476159302       -1.3173415879        0.4407632119
 H         -7.9148369207       -2.9702794285       -0.5601971279
 H         -5.5392871907       -2.3297629391       -1.0065559586
 H         -4.0426629198       -0.6635488686        1.6251502605
 H         -2.5522444293       -0.1971489383        3.3677281200
 H         -0.3509027990        0.7123726615        4.0132770892
 H          1.2727152908        1.3780162306        2.2831697887
 H          1.0157216604        2.3580866098       -0.4061882416
 C          0.7181706998        0.7443157194       -1.7768459410
 C         -0.2238591803        1.4922403493       -2.6699291210
 C          1.2456685997        1.4913928689       -2.9633212113
 H          1.6027584794        0.9276986385       -3.8120780212
 H          1.8062541399        2.3946147988       -2.7693395518
 H         -0.8830394405        0.9261155292       -3.3117032507
 H         -0.6677761500        2.3976452495       -2.2828880512
 H          0.7143306595       -0.3390954306       -1.8278166206
