  62
        -98.94031440
 C         -1.8693352697       -1.3149454298        0.2632718807
 C         -1.6754461400        0.0581344602       -0.0065666894
 C         -2.8235447301        0.9448901500        0.2574286604
 C         -3.9634641501        0.4135255099        0.7325871405
 C         -5.2576933502        1.1243385797        1.0175097803
 C         -6.1953245602        1.0574698394       -0.2000065797
 C         -6.0043358503        2.1770154893       -1.2225207398
 H         -6.6331815603        1.9408416291       -2.0840895998
 H         -6.3686507705        3.1154165693       -0.7991509600
 C         -4.5664030904        2.3838679695       -1.7053809998
 H         -4.0990896802        1.4156402195       -1.8946381297
 H         -4.6067038304        2.9139079293       -2.6590629799
 C         -3.7097364905        3.1947361298       -0.7217033899
 H         -3.2269334107        4.0158462498       -1.2556773100
 H         -4.3600528806        3.6511128897        0.0242516600
 C         -2.5938837504        2.4054072400       -0.0219992298
 H         -1.6911541404        2.4277865401       -0.6410922598
 H         -2.3416965505        2.9040329802        0.9199454402
 H         -6.0485137000        0.0881218793       -0.6834104995
 H         -7.2286331402        1.0933147992        0.1510008103
 H         -5.7278090101        0.5923871497        1.8472330904
 H         -5.0762800404        2.1518857398        1.3180490502
 O         -4.1057253398       -0.9184030401        0.9806914006
 C         -3.0751440297       -1.8114649299        0.7566730908
 O         -3.3453530195       -2.9968786699        1.0365762309
 O         -0.5954194501        0.5281038603       -0.4502223195
 C         -0.7403502496       -2.2996803896        0.0178189609
 C          0.4788766103       -1.8866083593        0.8056562209
 C          0.3454962103       -1.6680757291        2.1754329908
 C          1.4297436102       -1.2865552088        2.9405301908
 C          2.6708953102       -1.1054691787        2.3542027608
 C          2.8168655302       -1.3269158989        0.9911130708
 C          1.7275883203       -1.7272740892        0.2269462209
 H          1.8733565704       -1.8865962693       -0.8278667291
 N          4.0707009602       -1.1744165687        0.3688653208
 S          4.2338816801       -0.1206760689       -0.9231916693
 O          3.3802596602       -0.5339458492       -2.0055454093
 O          5.6540886701       -0.1032795187       -1.2007774993
 C          3.7388894298        1.4674493111       -0.2783653895
 C          4.7258945696        2.3456633914        0.1277925604
 C          4.3592901294        3.5589676714        0.6859741302
 C          3.0158863093        3.8687808512        0.8380494202
 C          2.0395329295        2.9738267809        0.4302823802
 C          2.3973204797        1.7588380709       -0.1345710596
 H          1.6441332599        1.0564750707       -0.4547369195
 H          0.9917941295        3.2020235008        0.5461424702
 H          2.7276948891        4.8117447012        1.2756144400
 H          5.1184565693        4.2563798015        1.0017412101
 H          5.7569206397        2.0635903115       -0.0132069195
 H          4.8279965102       -1.0165247385        1.0194119708
 H          3.5190840401       -0.7997360985        2.9479772208
 H          1.3083595601       -1.1212340087        4.0004148208
 H         -0.6271753797       -1.8012638793        2.6302384008
 H         -1.0894041594       -3.2664042896        0.4097328510
 C         -0.4844055395       -2.4433081898       -1.4677471391
 C          0.0773388007       -3.7200106397       -2.0141197789
 C         -1.3552561093       -3.3614387200       -2.2691249290
 H         -1.6438035194       -3.0607184702       -3.2652578190
 H         -2.1225489392       -3.9057972201       -1.7374254089
 H          0.7768660607       -3.6633446797       -2.8347152389
 H          0.2832874809       -4.5156091496       -1.3139572088
 H         -0.1782981897       -1.5139159598       -1.9353692292
