  62
        -98.94495850
 C          1.8992792829        0.7240185547       -0.1466136567
 C          2.4678533591        0.0735250486        0.9739362482
 C          3.5456621914       -0.8816483733        0.6856629872
 C          3.8912123110       -1.1153680139       -0.5938424532
 C          5.0032237501       -2.0247533795       -1.0281312315
 C          6.3268998354       -1.2586171943       -1.1608545884
 C          6.6632188382       -0.3918042417        0.0526135258
 H          7.6314240372        0.0752475609       -0.1400501989
 H          5.9282595765        0.4125628343        0.1305599925
 C          6.7200068060       -1.1562870232        1.3826180955
 H          6.8238601419       -2.2250547393        1.1917181745
 H          7.6083502152       -0.8377049972        1.9320497270
 C          5.5200177219       -0.9200394232        2.3015532943
 H          5.3562075650        0.1539351741        2.4206344122
 H          5.7619942725       -1.3255166945        3.2876034769
 C          4.2005811290       -1.5622831515        1.8548093762
 H          4.3595518989       -2.6222154230        1.6452528702
 H          3.4929399779       -1.4791462990        2.6851357588
 H          6.2649180020       -0.6106864551       -2.0382206026
 H          7.1279689484       -1.9809379546       -1.3280592566
 H          4.7403377161       -2.4497933328       -1.9983690375
 H          5.1095051281       -2.8321595079       -0.3060803721
 O          3.2879890198       -0.5087289609       -1.6473704323
 C          2.2841202665        0.4304083075       -1.4551958495
 O          1.8262843038        0.9143514863       -2.5064871632
 O          2.0859703416        0.2768916720        2.1588404642
 C          0.7976017726        1.7443977987        0.0785209676
 C         -0.4808942681        1.2690833496       -0.5667538917
 C         -1.2483793864        2.0476307167       -1.4219356991
 C         -2.4023710675        1.5348148637       -1.9906133431
 C         -2.8218381745        0.2480515432       -1.7109100140
 C         -2.0742215438       -0.5309836113       -0.8355610815
 C         -0.9196831976       -0.0158481306       -0.2679214719
 H         -0.3355410259       -0.6260213347        0.4099774373
 N         -2.5030344246       -1.8317127042       -0.5249452944
 S         -4.1307678320       -2.0767540910       -0.2266194959
 O         -4.1842458796       -3.2133884364        0.6661886325
 O         -4.8363627526       -2.2266693957       -1.4751358895
 C         -4.6884325494       -0.5993575207        0.6049137929
 C         -4.0652949250       -0.2385448234        1.7832070096
 C         -4.4666470148        0.9214688816        2.4252941344
 C         -5.4797997638        1.6966164321        1.8817078604
 C         -6.1000567975        1.3173026719        0.7016927957
 C         -5.7009331764        0.1591998000        0.0537907402
 H         -6.1524069746       -0.1709645713       -0.8675810419
 H         -6.8889340459        1.9206059515        0.2823437627
 H         -5.7866804875        2.6010724867        2.3827116299
 H         -3.9846889005        1.2173959828        3.3433397907
 H         -3.2826765291       -0.8633719860        2.1834685178
 H         -1.9245873241       -2.3081351900        0.1506250314
 H         -3.7057122624       -0.1712386809       -2.1634661100
 H         -2.9811543197        2.1457737632       -2.6661078018
 H         -0.9374206077        3.0520903478       -1.6557926171
 H          0.6407340912        1.7657587808        1.1672634461
 C          1.2404017497        3.1184959899       -0.3761991850
 C          0.6607473785        4.3450459789        0.2606219801
 C          2.0774581392        3.9503573477        0.5472759208
 H          2.8761226339        4.5426721941        0.1264401011
 H          2.3083490058        3.5352215501        1.5176561193
 H          0.4873976889        5.2137002025       -0.3562411931
 H         -0.0713833390        4.2037986194        1.0409569692
 H          1.4801615942        3.1510645264       -1.4329188821
