  62
        -98.94480274
 C          1.9001731578        0.3505588181        0.0473361082
 C          2.9687873207        0.4963394449        0.9704927525
 C          4.1630242991       -0.3196177213        0.7204794872
 C          4.1702752852       -1.1680677967       -0.3235238889
 C          5.3335029602       -2.0275985648       -0.7234075420
 C          6.2367710263       -1.3065180169       -1.7337852810
 C          6.6193424197        0.1135908920       -1.3167661641
 H          7.2817935365        0.5115145778       -2.0885155811
 H          5.7223117228        0.7369141461       -1.3104918874
 C          7.3114558522        0.2092114816        0.0500835457
 H          8.1707995758        0.8772434515       -0.0384974531
 H          7.6921159848       -0.7702139520        0.3421001429
 C          6.4292502629        0.7642249169        1.1699487706
 H          7.0704129516        0.9938601241        2.0251130080
 H          5.9704569545        1.7011482408        0.8443725235
 C          5.3186826493       -0.1686946370        1.6692367728
 H          5.7419146987       -1.1438846039        1.9187614387
 H          4.9021276061        0.2682802136        2.5814276949
 H          5.7120190814       -1.2529241211       -2.6904933581
 H          7.1402622532       -1.9024587455       -1.8752390681
 H          5.9038105890       -2.2934945867        0.1645783191
 H          4.9460821042       -2.9393743547       -1.1813495851
 O          3.1191785745       -1.3041862265       -1.1690252000
 C          1.9637653505       -0.5505720034       -1.0155056185
 O          1.1004821505       -0.7825818972       -1.8847180374
 H         -1.0891741240       -0.4402292080       -1.0213548483
 C         -1.2493444400       -0.4452343946        0.0456519454
 C         -0.4352110066        0.3249114626        0.8637353150
 C         -0.6359954408        0.2739400410        2.2390808061
 C         -1.6266482460       -0.5260970600        2.7804079076
 C         -2.4348617224       -1.2949482366        1.9616582032
 C         -2.2336397378       -1.2585253807        0.5883287211
 N         -3.0557986118       -2.0386418563       -0.2545021344
 S         -4.6831195532       -1.6386271676       -0.2361954892
 O         -5.2612694104       -2.0771652823        1.0087706507
 O         -5.2440935565       -2.2121737131       -1.4383511875
 C         -4.6951455107        0.1421664168       -0.3244627544
 C         -4.5648427390        0.7385095628       -1.5627366917
 C         -4.4853244044        2.1194340485       -1.6364236812
 C         -4.5222724276        2.8753730791       -0.4746692605
 C         -4.6504699482        2.2608524920        0.7610513632
 C         -4.7373827473        0.8802886298        0.8410213364
 H         -4.8423943010        0.3648525805        1.7812817907
 H         -4.6792630191        2.8512910999        1.6625555663
 H         -4.4513639007        3.9500694209       -0.5335114567
 H         -4.3905155055        2.6000620883       -2.5971657566
 H         -4.5420445250        0.1151795588       -2.4424834140
 H         -2.7213351670       -2.0602907342       -1.2079079446
 H         -3.2181599251       -1.9186859092        2.3615214139
 H         -1.7708262301       -0.5528225844        3.8498368466
 H          0.0027138185        0.8616926893        2.8827542898
 C          0.6572408994        1.1924597917        0.2881979659
 H          0.9496203796        1.9161851833        1.0604609471
 C          0.2027919060        1.9526797936       -0.9418268954
 C         -0.8260114000        3.0310723835       -0.7847594548
 C          0.5933245662        3.3897144452       -1.1045607789
 H          0.8252362956        3.7503983158       -2.0955252847
 H          1.1955760700        3.8361991289       -0.3269210939
 H         -1.5734453009        3.1445023440       -1.5542998697
 H         -1.1890603789        3.2289934067        0.2122080505
 H          0.1663618676        1.3472086333       -1.8381347132
 O          2.9244622380        1.2785005353        1.9567600649
