  62
        -98.94322454
 C          2.3848837894        0.4454401525        0.1115711286
 C          3.4594190502        0.4145157027        1.0322294258
 C          4.4733642510       -0.6224901425        0.8012655906
 C          4.3160235345       -1.4781204815       -0.2255123379
 C          5.2964150910       -2.5491620457       -0.6050277264
 C          6.3151334848       -2.0313141290       -1.6300686831
 C          6.9575705463       -0.6990443637       -1.2436668340
 H          6.1926184183        0.0808496811       -1.2500537247
 H          7.6789604538       -0.4474452308       -2.0241502932
 C          7.6618490754       -0.7056152236        0.1203070684
 H          8.6295178081       -0.2100783749        0.0170737394
 H          7.8557143957       -1.7324509836        0.4323713269
 C          6.9033538215        0.0259274095        1.2293302967
 H          6.6256941327        1.0255624214        0.8854252688
 H          7.5794832740        0.1489696477        2.0796194629
 C          5.6401639371       -0.6735013081        1.7471584888
 H          5.3164072478       -0.1481589650        2.6505265507
 H          5.8747323811       -1.7054472300        2.0159694867
 H          5.8063621532       -1.9008025415       -2.5879491836
 H          7.0912967586       -2.7880345383       -1.7578798253
 H          4.7434402233       -3.3812128166       -1.0439839389
 H          5.8099536268       -2.8979853522        0.2887625929
 O          3.2570057434       -1.4332349980       -1.0733982815
 C          2.2706778804       -0.4674766275       -0.9367344863
 O          1.3690198947       -0.5293557394       -1.7933933230
 O          3.5626965306        1.2134817410        2.0019764099
 C          1.3088626841        1.5033746102        0.2782809056
 C         -0.0305968465        0.8442131446        0.4949317416
 C         -0.1691788994       -0.0508519349        1.5533165611
 C         -1.3742813163       -0.6804677616        1.7941429250
 C         -2.4706237873       -0.4340213273        0.9852617320
 C         -2.3475200898        0.4629649907       -0.0655409071
 C         -1.1344640042        1.1001133077       -0.3014333267
 H         -1.0566482598        1.7923231304       -1.1252256974
 N         -3.4507303928        0.7117187720       -0.8966002115
 S         -4.9488385099        1.0088884473       -0.2074381443
 O         -5.6757463645        1.7676321639       -1.2017540259
 O         -4.8207622707        1.6176237301        1.0962234318
 C         -5.6858522040       -0.6050595273       -0.0587094641
 C         -5.7700118578       -1.3906262793       -1.1914567982
 C         -6.3520156905       -2.6443306360       -1.0943712182
 C         -6.8399469057       -3.0878071387        0.1258972196
 C         -6.7513894778       -2.2856413576        1.2531618179
 C         -6.1693083310       -1.0307770864        1.1628971765
 H         -6.0744091831       -0.3750640230        2.0138684793
 H         -7.1317827597       -2.6320249860        2.2006820995
 H         -7.2920296178       -4.0643968513        0.1983572127
 H         -6.4222950440       -3.2711110357       -1.9688027985
 H         -5.3816171440       -1.0095131454       -2.1211860133
 H         -3.2604170239        1.3479278141       -1.6567143875
 H         -3.4127694345       -0.9255508030        1.1645780936
 H         -1.4632574762       -1.3730434586        2.6174492278
 H          0.6872669189       -0.2461968423        2.1843848088
 H          1.5723784930        2.0438321975        1.1995332268
 C          1.3393375807        2.4773056447       -0.8803910903
 C          0.8049617966        3.8671473143       -0.7084749282
 C          2.2816662001        3.6405840448       -0.8249491065
 H          2.7808155321        3.9440883621       -1.7329907874
 H          2.8880757802        3.7462523594        0.0626885117
 H          0.2913275156        4.3305550815       -1.5376515707
 H          0.4060396204        4.1326195233        0.2590269828
 H          1.2044641891        1.9905750613       -1.8400678903
