  62
        -98.93426373
 C         -2.0494765832       -0.4693652888        0.7423466429
 C         -3.1701699814        0.1433342671        1.3571828673
 C         -4.4602893137       -0.0474845306        0.6880417544
 C         -4.5234292946       -0.7864926853       -0.4343077916
 C         -5.7673495965       -1.0912663288       -1.2241923434
 C         -6.1606812459        0.0105400510       -2.2178948221
 C         -6.7359716161        1.2800379489       -1.5885151041
 H         -7.1687085693        1.8708305630       -2.3983518068
 H         -7.5477850618        1.0125650337       -0.9114243014
 C         -5.7054394663        2.1416290182       -0.8454410126
 H         -4.6982173888        1.8494935376       -1.1516001180
 H         -5.8347331201        3.1887392344       -1.1283145652
 C         -5.7999286497        2.0691469691        0.6786300491
 H         -5.0022219741        2.6850632886        1.1013433214
 H         -6.7554667427        2.4839557413        1.0069591021
 C         -5.6588988681        0.6533988880        1.2529574073
 H         -6.5629946800        0.0766297003        1.0594908210
 H         -5.5186272333        0.7338465990        2.3336254130
 H         -5.2854171505        0.2660247438       -2.8196844108
 H         -6.9135890137       -0.4099747188       -2.8885440720
 H         -6.5969963131       -1.2817965344       -0.5427995258
 H         -5.5618673075       -2.0047131168       -1.7864732531
 O         -3.4289138954       -1.3733269221       -0.9844946048
 C         -2.1635248281       -1.2223480599       -0.4271026140
 O         -1.2646346936       -1.7982510282       -1.0649827507
 O         -3.0918944257        0.8205446242        2.4172961141
 C         -0.6922335024       -0.2726041117        1.4087911928
 C          0.2845546509        0.2536900965        0.3905813921
 C          0.1476000554        1.6010536437        0.0479564657
 C          0.9457839273        2.1873329604       -0.9130179286
 C          1.9340260728        1.4487413492       -1.5408100349
 C          2.0834258993        0.1101287175       -1.2095858700
 C          1.2545434978       -0.4859085072       -0.2670143306
 H          1.3897888092       -1.5355030671       -0.0846935392
 N          3.1035318796       -0.6735300660       -1.7952429922
 S          4.3268019636       -1.1503024147       -0.7559676001
 O          5.3517280803       -1.7254649493       -1.5976891108
 O          3.7874563639       -1.9945114782        0.2765920630
 C          4.9103736559        0.3811459532       -0.0479448570
 C          4.2174958005        0.9338764901        1.0112407208
 C          4.6173161745        2.1669833317        1.5015322107
 C          5.6963085951        2.8225314829        0.9284877588
 C          6.3842745550        2.2527129123       -0.1321068977
 C          5.9850926597        1.0232964821       -0.6312753476
 H          6.4908568836        0.5418055309       -1.4527576320
 H          7.2252608818        2.7631483271       -0.5731709927
 H          6.0025729724        3.7827393854        1.3125270126
 H          4.0808271331        2.6099428341        2.3251661203
 H          3.3845193691        0.3960643063        1.4347871898
 H          3.5129666542       -0.2530545201       -2.6181831090
 H          2.5744242297        1.9001713401       -2.2838058747
 H          0.8088297023        3.2275103560       -1.1660737982
 H         -0.6170809493        2.1842599645        0.5429964421
 H         -0.8674785561        0.5491862854        2.1223313298
 C         -0.3636651636       -1.4807885400        2.2755566345
 C         -0.0102213725       -2.8471007051        1.7734070730
 C          0.9982879244       -2.0464073300        2.5432898297
 H          1.2200509896       -2.3563971228        3.5543687737
 H          1.8555945654       -1.6628940159        2.0137787166
 H         -0.4717829489       -3.6970065553        2.2568333831
 H          0.1211862165       -2.9839812552        0.7117654113
 H         -1.0339136191       -1.4815107229        3.1331747977
