  62
        -98.93912918
 C         -2.2549956888       -0.0795193679        0.2740138197
 C         -3.2861102288       -0.7171916864       -0.4592178900
 C         -4.4542881767        0.1158398368       -0.7771948767
 C         -4.4833711892        1.4086804879       -0.4098986277
 C         -5.5906396372        2.3881290858       -0.6900069131
 C         -6.7457955385        2.3305064233        0.3191494571
 C         -7.6489587786        1.1017261083        0.2054037927
 H         -8.5323604810        1.2961766640        0.8168649151
 H         -7.9845588543        0.9933595391       -0.8263668673
 C         -7.0000438505       -0.2066797903        0.6780668694
 H         -6.1214930634        0.0211663756        1.2861834916
 H         -7.6992576741       -0.7495841626        1.3180396027
 C         -6.5887759428       -1.1535008492       -0.4494023908
 H         -7.4779985868       -1.4946228193       -0.9840730766
 H         -6.1069770480       -2.0274792773       -0.0039673102
 C         -5.6142522290       -0.5408891100       -1.4636200581
 H         -6.1337938708        0.1744985549       -2.1003944847
 H         -5.2185701386       -1.3451105595       -2.0883628322
 H         -7.3586875219        3.2212887809        0.1631479803
 H         -6.3305206354        2.3857085202        1.3281411920
 H         -5.1427713291        3.3831462628       -0.6442769348
 H         -5.9768554335        2.2265070198       -1.6967598957
 O         -3.4601574657        1.9952451199        0.2672630552
 C         -2.3449428324        1.2671569268        0.6417110419
 O         -1.5077744953        1.9244138031        1.2946290470
 O         -3.2595366196       -1.9160548388       -0.8434481317
 C         -0.9863276316       -0.7871161338        0.7220450132
 C          0.0319345679       -0.8812374252       -0.3895831864
 C         -0.2182673100       -1.6071485904       -1.5497505255
 C          0.7475303855       -1.7050392982       -2.5342165582
 C          1.9835383481       -1.1038069858       -2.3742217735
 C          2.2400194848       -0.3702390615       -1.2220897316
 C          1.2614788670       -0.2558839771       -0.2445165300
 H          1.4719616788        0.3276445969        0.6405153257
 N          3.4765138218        0.2682479339       -1.0355238880
 S          4.1115785978        0.3219730288        0.5285721048
 O          3.8826077583       -0.9385745457        1.1978287826
 O          3.6121158793        1.4984934506        1.1954578122
 C          5.8472066811        0.5228860901        0.1708554368
 C          6.6628028033       -0.5926728205        0.1403408503
 C          8.0048965597       -0.4337152426       -0.1672724780
 C          8.5052273201        0.8304061860       -0.4409486189
 C          7.6744849734        1.9406626861       -0.4058061908
 C          6.3318069946        1.7891472401       -0.0976999244
 H          5.6508130905        2.6228960473       -0.0484596974
 H          8.0674872558        2.9222866039       -0.6158861552
 H          9.5499121822        0.9517892253       -0.6799032934
 H          8.6537627953       -1.2943226501       -0.1917371567
 H          6.2313552537       -1.5540101140        0.3687480503
 H          4.1705152580       -0.0089877851       -1.7162974826
 H          2.7417697313       -1.1947431226       -3.1372587325
 H          0.5406624779       -2.2690396208       -3.4312644333
 H         -1.1771601195       -2.0865584634       -1.6713250899
 H         -0.5533879311       -0.1502103294        1.5063661883
 C         -1.2399829391       -2.1619907079        1.3127394186
 C         -0.1642128936       -2.7949144902        2.1411213864
 C         -1.4223703922       -2.3045084320        2.7919316184
 H         -2.1320727315       -3.0321649073        3.1562191947
 H         -1.3695936883       -1.4069113862        3.3916318952
 H         -0.0107670914       -3.8600135188        2.0583844726
 H          0.7461909911       -2.2326272028        2.2940295713
 H         -1.8279356826       -2.8044939553        0.6709728911
