  62
        -98.94026542
 C          1.1150878003        1.5298888101       -0.3256461299
 C          1.1704705506        0.1223112801       -0.4600550400
 C          2.2752611104       -0.5618301598        0.2413076704
 C          3.1373750100        0.1571843103        0.9785629008
 C          4.3358243097       -0.3323063095        1.7449900313
 C          5.6076072001       -0.2663895292        0.8819820519
 C          5.8751450207       -1.5082426790        0.0329591018
 H          6.7284282810       -1.2839844688       -0.6111449678
 H          6.1654230206       -2.3333997991        0.6866629419
 C          4.7044446212       -1.9633461592       -0.8413348287
 H          4.2389297312       -1.0952606092       -1.3111161588
 H          5.1062076317       -2.5892344190       -1.6402994586
 C          3.6469758110       -2.7632489195       -0.0659667893
 H          4.0434201506       -3.0291338195        0.9136620209
 H          3.4511540014       -3.7038795894       -0.5851251195
 C          2.2934850008       -2.0594117397        0.0961506202
 H          1.6730262012       -2.2582828098       -0.7835885501
 H          1.7624440505       -2.4871290700        0.9548931999
 H          5.5285141702        0.6120470909        0.2365111319
 H          6.4670688198       -0.1133232291        1.5378905423
 H          4.4549249692        0.3457918804        2.5929384414
 H          4.1671837798       -1.3355952596        2.1250136511
 O          3.0484993897        1.5123063703        1.0847658210
 C          2.0461578998        2.2213571702        0.4543780006
 O          2.0908923495        3.4532226401        0.6525012008
 O          0.3554801710       -0.5600991900       -1.1362227005
 C          0.0235494404        2.3955901299       -0.9389146302
 C         -1.1888563500        2.3904491096       -0.0386649108
 C         -1.6729823105        3.5636508594        0.5274549792
 C         -2.7638277908        3.5333859791        1.3785236787
 C         -3.3787492308        2.3348614990        1.6932517783
 C         -2.9003432103        1.1564778691        1.1311631583
 C         -1.8269926699        1.1941142294        0.2551131288
 H         -1.4579546695        0.2763266796       -0.1711697611
 N         -3.4982202302       -0.0794397110        1.4146312679
 S         -2.5508839899       -1.4587279809        1.5090177982
 O         -3.3620809201       -2.3914214411        2.2688576877
 O         -1.2485523102       -1.1773796707        2.0700741988
 C         -2.4281163891       -2.0639302906       -0.1597681118
 C         -3.3653354988       -1.6907913207       -1.1014292522
 C         -3.2680761281       -2.2114436205       -2.3817819922
 C         -2.2472107278       -3.0950615503       -2.6949399819
 C         -1.3196312381       -3.4653096302       -1.7347626615
 C         -1.4097116288       -2.9465591104       -0.4536335615
 H         -0.6995416691       -3.1959482704        0.3183450188
 H         -0.5215927979       -4.1480557300       -1.9797528913
 H         -2.1701714573       -3.4936168002       -3.6945108819
 H         -3.9858000878       -1.9208996106       -3.1323716825
 H         -4.1403320890       -0.9929721509       -0.8305660425
 H         -4.2151593005       -0.0640389213        2.1250258976
 H         -4.2170401110        2.3079677187        2.3728055379
 H         -3.1303860512        4.4506908290        1.8139725786
 H         -1.1757913106        4.4985386896        0.3137940895
 H          0.4265876402        3.4175030200       -0.9537218399
 C         -0.3526319889        2.0055557700       -2.3547535705
 C         -1.0235442687        3.0196606500       -3.2299011906
 C          0.3911984915        2.6091934903       -3.5060738601
 H          0.5932606519        1.9912633405       -4.3678278000
 H          1.1800728912        3.3118947804       -3.2789042896
 H         -1.7966637184        2.6852165399       -3.9040581910
 H         -1.1934058891        4.0029626599       -2.8179267706
 H         -0.6616565787        0.9732688000       -2.4479534307
