  62
        -98.94738826
 C         -2.5676885158       -0.1462180431       -0.3980327798
 C         -2.1642621821       -0.7116203107        0.8358926812
 C         -1.7123678839       -2.1092011644        0.7827858090
 C         -1.6900926473       -2.7501961830       -0.3997368590
 C         -1.2260897685       -4.1632120937       -0.6049706217
 C          0.2666911244       -4.2235415182       -0.9533084128
 C          1.1612029638       -3.4320791734        0.0012929674
 H          2.1953293062       -3.6026392987       -0.3086741404
 H          0.9705294265       -2.3628736513       -0.1239730809
 C          1.0020636232       -3.8051649162        1.4817607118
 H          0.5302605382       -4.7852191513        1.5697561026
 H          1.9954335693       -3.8795160408        1.9289640612
 C          0.2194454363       -2.7824099742        2.3081064074
 H          0.6147903216       -1.7827102224        2.1127441423
 H          0.3814905368       -3.0030082392        3.3670329934
 C         -1.2965646666       -2.7539074287        2.0748314454
 H         -1.7016631723       -3.7662361996        2.1477834481
 H         -1.7425297466       -2.1455968559        2.8673696801
 H          0.5754172785       -5.2710318405       -0.9587101365
 H          0.4054493328       -3.8203695604       -1.9593326413
 H         -1.4220674274       -4.7367130488        0.2991086167
 H         -1.7984826021       -4.5930257737       -1.4292444875
 O         -2.0749347955       -2.1700105665       -1.5665841842
 C         -2.5037029469       -0.8538758418       -1.5966444746
 O         -2.8087109233       -0.4368960154       -2.7345579601
 H         -0.4232650563        1.0407952777       -0.9864999409
 C         -0.6057344738        1.8988036311       -0.3551668456
 C         -1.9051403081        2.2022350271        0.0283495507
 C         -2.1159134298        3.3208503107        0.8246359178
 C         -1.0451131292        4.0914284847        1.2444882159
 C          0.2510758721        3.7572715975        0.8974004419
 C          0.4704745876        2.6485016003        0.0881178032
 N          1.7700964234        2.2689716588       -0.3024645857
 S          2.0845044309        0.6043099744       -0.2725099912
 O          1.6237821818        0.0169855254       -1.5066583263
 O          1.5729115882        0.0326287869        0.9503497460
 C          3.8674916921        0.6071936766       -0.2516896518
 C          4.5372276248        0.9522280170       -1.4106652445
 C          5.9224519762        0.9838192315       -1.3991392787
 C          6.6109674619        0.6704098234       -0.2361718768
 C          5.9251149623        0.3225162968        0.9175722117
 C          4.5390382555        0.2912371956        0.9136052663
 H          3.9616427913        0.0221670066        1.7835623534
 H          6.4625547333        0.0754791752        1.8188478022
 H          7.6891723506        0.6948613948       -0.2303744175
 H          6.4590214187        1.2511585198       -2.2951003720
 H          3.9589111830        1.1778033927       -2.2915253306
 H          2.4844359076        2.7738966009        0.2064175133
 H          1.0856368183        4.3454621371        1.2480402476
 H         -1.2220134134        4.9552671513        1.8672852526
 H         -3.1172878773        3.5828352148        1.1251393759
 C         -3.0168358879        1.3027723727       -0.4576261132
 H         -3.1906564090        1.5223574360       -1.5222483575
 C         -4.3165038521        1.4891461908        0.2980220442
 C         -5.3070342239        2.5241329840       -0.1416262198
 C         -5.5969987359        1.0701053554       -0.3574150568
 H         -6.3553873489        0.5967664575        0.2477232230
 H         -5.5306795203        0.6760616403       -1.3614511344
 H         -5.8723637948        3.0498371163        0.6130566056
 H         -5.0560392654        3.1220101150       -1.0047899287
 H         -4.2095389331        1.2954531186        1.3590991517
 O         -2.1975002773       -0.0865689431        1.9287149946
