  62
        -98.93438072
 C         -2.4335893154       -0.0179498951       -0.5005614935
 C         -3.4546995896        0.7121555735        0.1570378999
 C         -4.6031480735       -0.0818460984        0.6213196647
 C         -4.6133915320       -1.4163940304        0.4603891580
 C         -5.6966939991       -2.3579801970        0.9119176206
 C         -6.8692548109       -2.4781952881       -0.0711365571
 C         -7.7948818161       -1.2624120241       -0.1312045333
 H         -8.6844366773       -1.5643236307       -0.6876593623
 H         -8.1154153584       -1.0011577101        0.8777703548
 C         -7.1807335854       -0.0318627789       -0.8131365237
 H         -6.3087615660       -0.3363266736       -1.3967096728
 H         -7.9021440200        0.3936524154       -1.5144218639
 C         -6.7683491515        1.0850428095        0.1458547525
 H         -7.6545006267        1.4893836224        0.6400926914
 H         -6.3132302649        1.8884928640       -0.4389877722
 C         -5.7627202634        0.6546942624        1.2216862287
 H         -5.3711986921        1.5534239468        1.7044725696
 H         -6.2563633607        0.0400672026        1.9740697822
 H         -6.4701038447       -2.6821971648       -1.0674209843
 H         -7.4616391635       -3.3442522401        0.2329996473
 H         -5.2305417203       -3.3403437867        1.0139568966
 H         -6.0692504006       -2.0473000493        1.8884352794
 O         -3.5912247972       -2.0862960532       -0.1364408664
 C         -2.4985196357       -1.4067103757       -0.6447904945
 O         -1.6556782122       -2.1399808855       -1.2014569836
 O         -3.4305277450        1.9524279688        0.3588890953
 C         -1.1870611097        0.6304045437       -1.0809585552
 C         -0.1040134924        0.7119616988       -0.0360367552
 C         -0.3285171102        1.3311523475        1.1896016092
 C          0.6788781124        1.3953332086        2.1349138196
 C          1.9208107014        0.8369056494        1.8868495979
 C          2.1523506897        0.2080018930        0.6709570761
 C          1.1429746400        0.1576192505       -0.2830552642
 H          1.3222528401       -0.3412225841       -1.2263856465
 N          3.4007532672       -0.3955326157        0.4185210058
 S          4.7816674459        0.5403439485        0.6931760217
 O          4.9932545360        0.6416140554        2.1144455223
 O          4.6808672504        1.7938040803       -0.0223687964
 C          6.0330252145       -0.4965622639       -0.0355567353
 C          6.4981388399       -1.5768180638        0.6899573110
 C          7.4519187829       -2.4045952555        0.1198774157
 C          7.9207776795       -2.1406378275       -1.1586890047
 C          7.4446048928       -1.0522949517       -1.8739648551
 C          6.4896568109       -0.2207089806       -1.3101127122
 H          6.0975279535        0.6410326809       -1.8262665373
 H          7.8127844553       -0.8486161091       -2.8666172470
 H          8.6639898721       -2.7860063649       -1.5996472448
 H          7.8263130482       -3.2508768720        0.6729071686
 H          6.1107399625       -1.7381577620        1.6822737343
 H          3.4378159866       -0.7939308915       -0.5108097771
 H          2.7123059428        0.8858055171        2.6167269077
 H          0.4951463329        1.8840128931        3.0802849472
 H         -1.2974716855        1.7634508026        1.3890263741
 H         -0.8401628678       -0.0674183888       -1.8597263356
 C         -1.4667174156        1.9608805777       -1.7667104821
 C         -0.9866673731        3.2841231486       -1.2599877076
 C         -0.3570586270        2.6796788746       -2.4764799085
 H         -0.5559710197        3.1204053707       -3.4415669317
 H          0.6408495539        2.2798825098       -2.3696940060
 H         -1.6453290757        4.1309004388       -1.3783483227
 H         -0.4092680723        3.3089346624       -0.3494084471
 H         -2.4345025462        1.9633078444       -2.2578557504
