  62
        -98.93882753
 C          2.5796750383        0.1297012899       -0.4439983510
 C          2.2414367550        0.7896060590        0.7604022157
 C          1.7381031817        2.1687168171        0.6356461783
 C          1.6207563907        2.7192349323       -0.5847164275
 C          1.1791087839        4.1109180985       -0.9697640538
 C          0.0456309237        4.7623375228       -0.1721832470
 C         -1.0952218101        3.8148657215        0.2252912230
 H         -2.0458827189        4.2553108952       -0.0822317644
 H         -0.9968955527        2.8588573431       -0.2933669425
 C         -1.1578912112        3.5540437585        1.7312508217
 H         -1.0005886675        4.4937049302        2.2663157255
 H         -2.1587992945        3.1945670703        1.9809674034
 C         -0.1621341087        2.5118298338        2.2338764782
 H         -0.4038352162        1.5406611292        1.7920702957
 H         -0.2805333513        2.4177124944        3.3163186452
 C          1.3135819161        2.8167096716        1.9224506977
 H          1.5040763058        3.8873642906        1.9190087304
 H          1.9273032819        2.3570006340        2.7020565588
 H          0.4513723761        5.2317131536        0.7228805148
 H         -0.3492711110        5.5659205766       -0.7970554736
 H          2.0590470043        4.7615899552       -0.9345302560
 H          0.8834747716        4.0310570271       -2.0193478324
 O          1.9693572703        2.0464036181       -1.7214471146
 C          2.4200812521        0.7397267342       -1.6843948230
 O          2.6513979610        0.2407538357       -2.8076675892
 H          0.3877013286       -1.0029729067       -0.6970838395
 C          0.5999593522       -1.8101809453       -0.0114170468
 C          1.9216531588       -2.1450618857        0.2542554624
 C          2.1748527266       -3.2110196697        1.1067450064
 C          1.1248822026       -3.9000303878        1.6914245572
 C         -0.1871295567       -3.5325009053        1.4594660752
 C         -0.4505497452       -2.4633790646        0.6075876853
 N         -1.7669383016       -2.0135936510        0.4127166305
 S         -2.1456705768       -0.8387791904       -0.7244488998
 O         -1.9324119132       -1.3418893981       -2.0663313483
 O         -1.4776391144        0.3894463807       -0.3818474867
 C         -3.8918615478       -0.6775924009       -0.4079482798
 C         -4.3007023601        0.1703687319        0.6035978046
 C         -5.6542472850        0.2836903734        0.8777513800
 C         -6.5715318177       -0.4501847840        0.1401588649
 C         -6.1468759174       -1.2954266713       -0.8738967931
 C         -4.7941235765       -1.4131249671       -1.1526257317
 H         -4.4186042317       -2.0476509573       -1.9393346938
 H         -6.8627258523       -1.8613541692       -1.4479150484
 H         -7.6245733899       -0.3598213290        0.3548574650
 H         -5.9878679431        0.9427665810        1.6629056521
 H         -3.5493240680        0.7250892331        1.1418409844
 H         -2.4716754674       -2.7320646814        0.4890548625
 H         -1.0009634751       -4.0547367822        1.9378049631
 H          1.3340539758       -4.7296090213        2.3497615149
 H          3.1919738292       -3.4984005157        1.3182634427
 C          3.0049473471       -1.3268840677       -0.4100784449
 H          3.0840402760       -1.6467168896       -1.4606494935
 C          4.3586409630       -1.4770523327        0.2528415868
 C          5.2988302639       -2.5613068517       -0.1782430449
 C          5.5882110835       -1.1342351723       -0.5315033220
 H          6.3977705610       -0.6287318090       -0.0270556704
 H          5.4473517846       -0.8193515433       -1.5556857555
 H          4.9738774811       -3.2204250819       -0.9692667822
 H          5.9158005914       -3.0363171715        0.5695416187
 H          4.3378745943       -1.1990846793        1.3001983480
 O          2.3622765851        0.2559061194        1.8943309630
