  62
        -98.93329013
 C          2.2766759616       -0.2887970397       -0.1728714696
 C          3.4377059396       -0.7145994788       -0.8599993017
 C          4.6730748559        0.0263893035       -0.5659340937
 C          4.6288296692        1.0518010229        0.3044136972
 C          5.8132520545        1.8515932224        0.7678918415
 C          6.6143935530        1.0482020656        1.8124302387
 C          8.0214635721        0.6549519932        1.3619453599
 H          8.6689881991        1.5326839103        1.4144654232
 H          8.4006971616       -0.0776192351        2.0775695706
 C          8.1326379704        0.0750588057       -0.0514053044
 H          8.1176514916        0.8845728559       -0.7826102684
 H          9.1162065863       -0.3935779739       -0.1260971617
 C          7.0654749341       -0.9564047755       -0.4397237661
 H          7.5482347034       -1.7398996863       -1.0273987533
 H          6.6515329218       -1.4354357587        0.4478142523
 C          5.9162196287       -0.3968017396       -1.2989439865
 H          5.5812732465       -1.1792359440       -1.9863591671
 H          6.2848309562        0.4360860350       -1.9040686006
 H          6.6998766565        1.6300921141        2.7313536177
 H          6.0459667787        0.1498303799        2.0621540216
 H          5.4303586071        2.7722496897        1.2083802192
 H          6.4409727748        2.1060844897       -0.0831611914
 O          3.4894655988        1.4391155557        0.9355463291
 C          2.2862676113        0.7845902079        0.7169436381
 O          1.3255116144        1.2473573137        1.3601926563
 O          3.4386970704       -1.6664593622       -1.6872298582
 C          0.9688497213       -1.0169177729       -0.4209694543
 C         -0.0765680024       -0.0608339719       -0.9396075606
 C          0.2391616509        0.7576938312       -2.0219726094
 C         -0.6904045083        1.6401694596       -2.5354658750
 C         -1.9613388031        1.7153910155       -1.9924675723
 C         -2.2870386742        0.9035264177       -0.9133375920
 C         -1.3471778901        0.0226581491       -0.3945453538
 H         -1.6295858493       -0.5937704964        0.4421021084
 N         -3.5597285254        0.9725555777       -0.3245155125
 S         -4.2450534641       -0.4427019899        0.2881329049
 O         -3.7512382645       -0.6679220070        1.6231532776
 O         -4.0663711036       -1.5267283032       -0.6514621040
 C         -5.9617734829        0.0372037970        0.3564951621
 C         -6.4003462451        0.7836676409        1.4339782788
 C         -7.7264718421        1.1837297363        1.4762561877
 C         -8.5871911278        0.8336524631        0.4463599670
 C         -8.1333052068        0.0824373005       -0.6273184147
 C         -6.8078332319       -0.3199437567       -0.6765357932
 H         -6.4127712425       -0.9121564861       -1.4862352839
 H         -8.8056913949       -0.1913207852       -1.4243164354
 H         -9.6190079098        1.1455989010        0.4826642816
 H         -8.0835985835        1.7648372173        2.3111180574
 H         -5.6975133604        1.0237811712        2.2148011330
 H         -4.2210891350        1.5028705453       -0.8750114192
 H         -2.6897629265        2.4027448265       -2.3950908582
 H         -0.4277980067        2.2701933211       -3.3721387641
 H          1.2294470272        0.6921907233       -2.4525173749
 H          1.1852987787       -1.7461966218       -1.2166422111
 C          0.5375706828       -1.7694383717        0.8198278960
 C         -0.3315064386       -2.9843701465        0.6998803145
 C          1.1084777887       -3.1281832086        1.0886279780
 H          1.3438394781       -3.3963064348        2.1076399240
 H          1.7970699220       -3.5292408222        0.3592772548
 H         -1.0925313126       -3.1474759170        1.4487968740
 H         -0.6273827667       -3.2903353908       -0.2925537735
 H          0.3807038831       -1.1148978424        1.6708332351
