  62
        -98.94134137
 C         -1.2126578708       -0.8730083388        0.4800499008
 C         -2.0642913107       -0.6109846789       -0.6181691994
 C         -2.9855918202        0.5294670816       -0.4700563900
 C         -2.9411115999        1.2758689121        0.6465552097
 C         -3.7408024093        2.5092149226        0.9859518391
 C         -5.2356185893        2.5058760532        0.6386590790
 C         -5.9227135999        1.1364104735        0.7432025497
 H         -5.2643855503        0.4260863735        1.2460634900
 H         -6.8219365699        1.2370333542        1.3536781596
 C         -6.3383645901        0.5718600831       -0.6172896301
 H         -7.1173230205       -0.1785696065       -0.4629764498
 H         -6.7738734797        1.3776640330       -1.2120671705
 C         -5.2209731004       -0.0938307678       -1.4196076498
 H         -5.6185113405       -0.3454232581       -2.4057205496
 H         -4.9304093909       -1.0330231277       -0.9413941693
 C         -3.9465962000        0.7465892715       -1.6033907501
 H         -3.4341634502        0.3910041309       -2.5017431399
 H         -4.1825373595        1.7999659816       -1.7351977106
 H         -5.7178881190        3.2090840337        1.3198616087
 H         -5.3761435691        2.8986635728       -0.3673889112
 H         -3.6156776793        2.6404974431        2.0637353290
 H         -3.2592027889        3.3647228122        0.5022220987
 O         -2.0754343800        1.0098597022        1.6656947198
 C         -1.1888173005       -0.0502800383        1.6040145004
 O         -0.4402775106       -0.1547862281        2.5984299704
 H          0.8010964197        0.3362134299       -0.3238249197
 C          1.2313083394       -0.4713654105       -0.8953499993
 C          0.7950094388       -1.7708940802       -0.6807688688
 C          1.3422123483       -2.7875546309       -1.4539596883
 C          2.2904786385       -2.4968831617       -2.4197468284
 C          2.7309035891       -1.2009047920       -2.6203662290
 C          2.1925655196       -0.1779355214       -1.8483563594
 N          2.6044291202        1.1539618283       -2.0075452001
 S          2.7158840306        2.1453251789       -0.6650876705
 O          1.4043839008        2.5499472297       -0.2230303907
 O          3.5934140411        3.2158012683       -1.0899202810
 C          3.5396917901        1.1495453091        0.5650142300
 C          4.8764451200        0.8691611283        0.3511341402
 C          5.5477243096        0.0590144985        1.2509551306
 C          4.8722371293       -0.4624871807        2.3444828708
 C          3.5336981294       -0.1682400800        2.5478351106
 C          2.8565121798        0.6458817599        1.6523398702
 H          1.8131376799        0.8809104904        1.7961841400
 H          2.9980010692       -0.5677484394        3.3944228508
 H          5.3910203790       -1.0985944906        3.0441562811
 H          6.5907408795       -0.1658254521        1.0971980707
 H          5.3680990302        1.3037103577       -0.5040462000
 H          3.3750936303        1.2916430876       -2.6445074901
 H          3.4740484792       -0.9789386327       -3.3705226990
 H          2.7002693282       -3.2942283722       -3.0207269180
 H          1.0209939079       -3.8054315806       -1.3053330378
 C         -0.2148900214       -2.0136289593        0.4166031813
 H          0.3288676086       -1.9913673491        1.3736973513
 C         -0.9282464220       -3.3443997290        0.2926761519
 C         -0.3468307526       -4.5766512690        0.9162877925
 C         -1.5639376523       -3.9382184681        1.5127943922
 H         -2.5158891125       -4.4367750977        1.4083234924
 H         -1.4563398221       -3.3952502377        2.4409817219
 H         -0.4657978230       -5.5190965192        0.4032521729
 H          0.5869928175       -4.4763065892        1.4485279725
 H         -1.4589557020       -3.4443161092       -0.6468518081
 O         -2.0523541110       -1.2867119994       -1.6800584291
