  62
        -98.93239222
 C         -1.7322493098       -0.3783202389        0.8405745604
 C         -2.7180498800       -1.1321219088        0.1568765006
 C         -4.1066698699       -0.6549185884        0.2943574304
 C         -4.3624528496        0.4394756618        1.0316845701
 C         -5.7065971394        1.0909051222        1.1940325299
 C         -6.0505696392        1.9134611420       -0.0642297603
 C         -7.2482886893        1.3860609221       -0.8549122402
 H         -8.1665732793        1.6526833725       -0.3274105203
 H         -7.2587563692        1.9041490718       -1.8162700504
 C         -7.2721750997       -0.1254311880       -1.1021087198
 H         -7.6300071999       -0.6376789376       -0.2077252997
 H         -8.0140540497       -0.3077297580       -1.8825525098
 C         -5.9409599599       -0.7563304685       -1.5302798796
 H         -5.2950194697       -0.0116383188       -1.9957954598
 H         -6.1525872401       -1.5126001586       -2.2888842894
 C         -5.1720544201       -1.4608438384       -0.3968276694
 H         -5.8806146002       -1.8407345980        0.3442831307
 H         -4.6423835303       -2.3209276486       -0.8169955391
 H         -6.2578074989        2.9458626621        0.2217396794
 H         -5.1689740992        1.9382721516       -0.7083556903
 H         -6.4642186796        0.3313315925        1.3739234901
 H         -5.6485302493        1.7401968224        2.0679336997
 O         -3.3884831694        1.1404785617        1.6699498399
 C         -2.0622937695        0.7527826214        1.5914826901
 O         -1.2791079994        1.4819482913        2.2339022599
 O         -2.4747746803       -2.1527026191       -0.5357429291
 C         -0.2529071599       -0.7308626993        0.8162892205
 C          0.4212663803       -0.0979986998       -0.3740315896
 C         -0.0706295697       -0.2910105400       -1.6623379096
 C          0.5426398504        0.3125040595       -2.7438069397
 C          1.6617041706        1.1074192293       -2.5659590699
 C          2.1618775807        1.3048455995       -1.2844011300
 C          1.5421202005        0.7001548199       -0.1977596398
 H          1.9249774205        0.8863768101        0.7946335701
 N          3.2895183109        2.1099261192       -1.0798711202
 S          4.3790541108        1.7778725293        0.1346307899
 O          3.8596128608        2.1919877398        1.4137791298
 O          5.5969758809        2.4345940088       -0.2911164602
 C          4.6203748003        0.0086404092        0.1237595904
 C          4.7205586901       -0.6539221005        1.3303495206
 C          4.9498052697       -2.0212231606        1.3313228910
 C          5.0661070296       -2.7018251409        0.1295690512
 C          4.9619669798       -2.0229324512       -1.0744991990
 C          4.7437984401       -0.6546618312       -1.0814023294
 H          4.6680636303       -0.1058606814       -2.0056291595
 H          5.0493183097       -2.5550537715       -2.0078706689
 H          5.2348865993       -3.7667315110        0.1320432415
 H          5.0286579696       -2.5487969003        2.2683018511
 H          4.6071194602       -0.0887454802        2.2419511405
 H          3.7362508410        2.4548805489       -1.9160477203
 H          2.1389479508        1.5816639589       -3.4100388101
 H          0.1493264204        0.1587925893       -3.7372480297
 H         -0.9358340199       -0.9204625999       -1.8019426294
 H          0.1677933302       -0.2597350492        1.7189637804
 C          0.0032340297       -2.2294468594        0.9210196109
 C          0.6864630295       -3.0277999098       -0.1451271188
 C          1.4039794996       -2.7220916397        1.1324099111
 H          1.5714459293       -3.5189818795        1.8406516413
 H          2.1938261797       -1.9863746199        1.0989097709
 H          0.3327048992       -4.0328291798       -0.3158382186
 H          1.0045456397       -2.5190553902       -1.0409865990
 H         -0.7792805505       -2.7377935590        1.4738032111
