  62
        -98.94424499
 C         -2.1428054709       -1.4099766392        0.0022710785
 C         -2.4528618609       -0.4496335586       -0.9909046009
 C         -3.7803103607        0.1762277716       -0.8889803803
 C         -4.6149963806       -0.1868882687        0.1007515296
 C         -5.9648086504        0.4172462114        0.3545779102
 C         -5.8687151000        1.6018118008        1.3263497709
 C         -4.7828963898        2.6146487408        0.9622030913
 H         -4.8297627795        3.4201851104        1.6983267717
 H         -3.8031649699        2.1423521505        1.0674647908
 C         -4.9117540399        3.2047508716       -0.4491142584
 H         -5.9225633200        3.0455636121       -0.8264640883
 H         -4.7529830497        4.2837834716       -0.3927397678
 C         -3.9017731502        2.6588048320       -1.4602108889
 H         -2.8930539702        2.7322204915       -1.0449802490
 H         -3.9356016702        3.2932371225       -2.3501094685
 C         -4.1324739106        1.2131482223       -1.9185587497
 H         -5.1656725907        1.0928639527       -2.2499138496
 H         -3.4740648708        1.0263824726       -2.7718993299
 H         -6.8385103499        2.1016571610        1.3583173513
 H         -5.6529119399        1.2143428502        2.3247433306
 H         -6.3959670405        0.7427401621       -0.5900895795
 H         -6.6073790805       -0.3485506187        0.7922722999
 O         -4.2944111407       -1.1277872693        1.0237989990
 C         -3.0584168008       -1.7482270796        1.0053254385
 O         -2.8944482609       -2.5820730502        1.9179754080
 H          0.2616889593        0.1344883707       -0.9400590110
 C          0.6909829694       -0.1180115599        0.0179362088
 C          0.2496303792       -1.2536189702        0.6824115182
 C          0.8008806394       -1.5550693110        1.9223942779
 C          1.7578733397       -0.7304939716        2.4882350282
 C          2.1853539098        0.4083389387        1.8298343888
 C          1.6438056897        0.7147477596        0.5874999791
 N          2.0680761198        1.8676014499       -0.0919435503
 S          3.7012996099        2.2212226195       -0.1105356104
 O          4.0661280002        2.8911901087        1.1137422299
 O          3.9157531499        2.9740533301       -1.3265028900
 C          4.5284382095        0.6420351494       -0.1973746614
 C          4.2271070292       -0.1977150600       -1.2513387719
 C          4.8443279089       -1.4360147701       -1.3180261527
 C          5.7474254289       -1.8120993308       -0.3353951030
 C          6.0429846093       -0.9557082715        0.7134654274
 C          5.4275003096        0.2836926886        0.7862185182
 H          5.6246706899        0.9791400681        1.5858670486
 H          6.7465827394       -1.2496091421        1.4755729671
 H          6.2228659287       -2.7786817809       -0.3891132537
 H          4.6160799886       -2.1034227096       -2.1333767030
 H          3.5224378991        0.1231598806       -2.0018249016
 H          1.6439787897        1.9865189705       -0.9999629502
 H          2.9155530300        1.0715569183        2.2646685891
 H          2.1724694098       -0.9740065522        3.4544433180
 H          0.4594264593       -2.4333480712        2.4506490775
 C         -0.8093292711       -2.1408900096        0.0718488779
 H         -0.9725762911       -2.9838310299        0.7560017174
 C         -0.3650190314       -2.6940744889       -1.2686529025
 C          0.6315648883       -3.8117951091       -1.2981317033
 C         -0.7974102618       -4.0713179686       -1.6681962733
 H         -1.0401436120       -4.2546741879       -2.7042251333
 H         -1.4141517018       -4.6227472189       -0.9731581835
 H          1.3723814382       -3.8198407188       -2.0824907735
 H          0.9865068384       -4.1907951998       -0.3518918636
 H         -0.3107092014       -1.9471451085       -2.0490021221
 O         -1.6795447309       -0.1107187782       -1.9274925108
