  62
        -98.94850218
 C         -1.2576359903       -1.5143137394        0.5007688612
 C         -2.1605552404       -1.1582425905       -0.5298537791
 C         -3.1862834200       -0.1701104097       -0.1679735202
 C         -3.2178449496        0.3239525420        1.0827857391
 C         -4.1852571192        1.3617864129        1.5719609379
 C         -3.6133607688        2.7777491625        1.4201732860
 C         -3.0363332289        3.0733426405        0.0352555555
 H         -2.1335955491        2.4753504701       -0.1156205839
 H         -2.7148604686        4.1178118804        0.0371121941
 C         -4.0133331792        2.8433409093       -1.1262655740
 H         -3.9255986190        3.6808374584       -1.8217805051
 H         -5.0380913691        2.8381268601       -0.7519009638
 C         -3.7603131897        1.5685900582       -1.9337603024
 H         -2.7029158098        1.5171926575       -2.2081133125
 H         -4.3374080499        1.6335109372       -2.8603240224
 C         -4.1444611600        0.2530016492       -1.2445748706
 H         -4.1163063704       -0.5388694418       -1.9988861696
 H         -5.1623674399        0.3232149801       -0.8557513605
 H         -2.8132461786        2.9112296332        2.1521817957
 H         -4.4054526985        3.4946302631        1.6464344252
 H         -5.1159252493        1.2735567425        1.0147567682
 H         -4.3853707491        1.1735323444        2.6284765182
 O         -2.3376897396       -0.0463136270        2.0474578495
 C         -1.3156619299       -0.9399022777        1.7692489104
 O         -0.5351257598       -1.1425879367        2.7230399106
 H          0.4234551201        0.0941285491       -0.2456718012
 C          0.9640467598       -0.5440921020       -0.9263047205
 C          0.7803631993       -1.9174877318       -0.8659775586
 C          1.4651271989       -2.7149401232       -1.7751864077
 C          2.2955858390       -2.1393127947       -2.7214640086
 C          2.4762741694       -0.7686119749       -2.7745288404
 C          1.7979155198        0.0367547265       -1.8671199614
 N          1.9330407802        1.4326148965       -1.8822578032
 S          1.8727620307        2.2940503784       -0.4515404043
 O          0.5265228708        2.3374307495        0.0602606559
 O          2.4624606711        3.5730455477       -0.7859537361
 C          2.9568476307        1.4088275795        0.6546150467
 C          4.3121480706        1.4689041187        0.3889940863
 C          5.1885834105        0.7593812495        1.1922176871
 C          4.6974607005       -0.0028209290        2.2419955682
 C          3.3367117905       -0.0493631582        2.4989392885
 C          2.4545599606        0.6626352110        1.7003158377
 H          1.3919160806        0.6355694816        1.8860747579
 H          2.9429939705       -0.6388576171        3.3118297893
 H          5.3775357804       -0.5611480684        2.8657007488
 H          6.2481040205        0.7992416689        0.9975820169
 H          4.6547481107        2.0825997375       -0.4282162345
 H          2.6283026602        1.7934878154       -2.5180733638
 H          3.1230108894       -0.3239583560       -3.5150331711
 H          2.8148917386       -2.7689712258       -3.4277583979
 H          1.3411143286       -3.7852578832       -1.7479545563
 C         -0.1214329006       -2.4761684601        0.2102553223
 H          0.4671197595       -2.5409925491        1.1383349322
 C         -0.6601534711       -3.8533199504       -0.1217014859
 C          0.0945460485       -5.0831543801        0.2825113756
 C         -1.1722719712       -4.7145264588        0.9924485554
 H         -2.0566530614       -5.3093774687        0.8206619863
 H         -1.1019393609       -4.3179776075        1.9952543648
 H          1.0255573287       -4.9495402397        0.8124602953
 H          0.0783177382       -5.9374845210       -0.3774139333
 H         -1.2060644413       -3.8692186815       -1.0577388257
 O         -2.1124813107       -1.6373915620       -1.6930889185
