  62
        -98.93360096
 C         -2.5271902979       -1.3904282892        0.3412588468
 C         -2.8061557280       -0.5233290530       -0.7403060957
 C         -3.8557489892        0.4980285791       -0.5251520538
 C         -4.4805972127        0.5547662689        0.6647511838
 C         -5.5375037132        1.5240383646        1.1232854971
 C         -4.9632734095        2.9073554157        1.4691986624
 C         -3.9452614946        3.4482811792        0.4687468772
 H         -3.5369558994        4.3757433657        0.8788311102
 H         -3.1178630867        2.7414529545        0.3818509890
 C         -4.4991339964        3.7561619756       -0.9204536800
 H         -5.3024815463        4.4907688121       -0.8309905564
 H         -3.6922721468        4.2159531324       -1.4971529381
 C         -5.0239108411        2.5569036610       -1.7129900182
 H         -5.1499960374        2.8826988658       -2.7497747258
 H         -6.0075127012        2.2547745246       -1.3638196197
 C         -4.0845342693        1.3554046976       -1.7473610142
 H         -4.4280155595        0.6671274215       -2.5293699547
 H         -3.0924759662        1.6872261473       -2.0752029782
 H         -4.4679886636        2.8336219871        2.4403716879
 H         -5.7920274664        3.6107281291        1.5653847206
 H         -5.9819384506        1.0971061175        2.0250235967
 H         -6.3205355625        1.6049149286        0.3752957303
 O         -4.1760484785       -0.3004226773        1.6822723108
 C         -3.2135983656       -1.2785781218        1.5539425014
 O         -3.0619330830       -1.9863957147        2.5696492788
 O         -2.2139672043       -0.5660114637       -1.8516998638
 C         -1.4928609339       -2.5032137694        0.2811829047
 C         -0.1083045871       -1.9899789464        0.5834562266
 C          0.6964556801       -2.6142205096        1.5289455404
 C          1.9749352003       -2.1481441193        1.7824526574
 C          2.4747272836       -1.0518354784        1.1026720180
 C          1.6783741243       -0.4204450852        0.1561085714
 C          0.3980865229       -0.8911561327       -0.0969294240
 H         -0.2123230509       -0.4074679688       -0.8454335023
 N          2.1707374025        0.7017438462       -0.5346840303
 S          3.6595615936        0.5508298362       -1.2991750676
 O          3.6455342425        1.5328916990       -2.3609914473
 O          3.9150724517       -0.8162319294       -1.6907326340
 C          4.8288083531        1.0594679345       -0.0564468214
 C          5.8812249125        0.2308697163        0.2799905324
 C          6.7857365623        0.6536882021        1.2418006662
 C          6.6228961876        1.8910116344        1.8457520130
 C          5.5617837760        2.7124176129        1.4946138974
 C          4.6549170738        2.2963680645        0.5330582126
 H          3.8191840342        2.9047483522        0.2298574947
 H          5.4383737817        3.6738620476        1.9665748726
 H          7.3270782171        2.2176046160        2.5945972160
 H          7.6114984407        0.0169700023        1.5158796708
 H          5.9637705755       -0.7250997339       -0.2121374944
 H          1.4928235864        1.1068764442       -1.1649859824
 H          3.4697038936       -0.6852485012        1.2956817697
 H          2.5893658794       -2.6429055146        2.5189750515
 H          0.3098365947       -3.4643618876        2.0718861437
 H         -1.7732564764       -3.1930524664        1.0925968016
 C         -1.5554760724       -3.2930879428       -1.0211429766
 C         -0.4795253719       -3.2800140539       -2.0613529435
 C         -0.6792824874       -4.4959199078       -1.2103947879
 H         -1.1029891372       -5.3817111786       -1.6586781977
 H          0.0603325613       -4.6947259066       -0.4493390444
 H         -0.7862636479       -3.3103713240       -3.0960284423
 H          0.3993486246       -2.6769058516       -1.8919244134
 H         -2.5725476580       -3.3731935695       -1.3920480014
