  62
        -98.94392642
 C         -1.8317377305       -1.1275376019        0.2006803995
 C         -2.1861716469       -0.0997006190       -0.7057806197
 C         -3.6208082128        0.0181864097       -1.0071447956
 C         -4.4870267273       -0.8452792980       -0.4461109794
 C         -5.9767683203       -0.8029780198       -0.6232141985
 C         -6.6408567031        0.0493679272        0.4673164994
 C         -5.9897985441        1.4186125384        0.6631371488
 H         -6.5587973251        1.9420447661        1.4345341844
 H         -4.9768684361        1.2810876480        1.0485120882
 C         -5.9336171064        2.2822669764       -0.6046500929
 H         -6.6435566590        1.9054222360       -1.3417890047
 H         -6.2398659701        3.2990464119       -0.3497919028
 C         -4.5468801546        2.3825306713       -1.2432637541
 H         -3.8125591123        2.6702606750       -0.4862024118
 H         -4.5733896716        3.1797657838       -1.9910773899
 C         -4.0415256066        1.1150457329       -1.9441474692
 H         -4.7966998921        0.7562953918       -2.6466139047
 H         -3.1448927402        1.3844543854       -2.5105071396
 H         -6.5853069077       -0.4942478412        1.4132398771
 H         -7.6938615047        0.1786957966        0.2109720886
 H         -6.3598677407       -1.8227096056       -0.5584122708
 H         -6.2091713921       -0.3995546756       -1.6067518273
 O         -4.1036971684       -1.8372662413        0.3975850234
 C         -2.7739193824       -1.9948387227        0.7530716353
 O         -2.5616169294       -2.9251245006        1.5567020565
 O         -1.3518524139        0.6816904600       -1.2337082852
 C         -0.3781878263       -1.3225569718        0.5922181246
 C          0.1985722692       -0.0349034396        1.1272268434
 C         -0.5273869378        0.6885132948        2.0702342274
 C         -0.0388507790        1.8755707231        2.5789378202
 C          1.1873251875        2.3641550142        2.1636709062
 C          1.9304541554        1.6405364909        1.2389018627
 C          1.4394593386        0.4430464243        0.7351283286
 H          2.0249007984       -0.0952260275        0.0090581272
 N          3.1989571747        2.0871384404        0.8523752073
 S          3.8996475290        1.6953316169       -0.6094855859
 O          5.0073911632        2.6217495460       -0.7228224149
 O          2.9574446538        1.7064599776       -1.7029223034
 C          4.5510635726        0.0551519699       -0.3690046901
 C          5.0715967475       -0.2934120070        0.8615189007
 C          5.6177154818       -1.5566939725        1.0232269823
 C          5.6437565317       -2.4425403670       -0.0430300680
 C          5.1229579255       -2.0754065534       -1.2740893736
 C          4.5701028929       -0.8150372961       -1.4408227453
 H          4.1418992168       -0.4926582386       -2.3770455242
 H          5.1442838018       -2.7647759564       -2.1033923127
 H          6.0702638046       -3.4248231133        0.0849309476
 H          6.0220405607       -1.8463242924        1.9797404775
 H          5.0360742399        0.4183357153        1.6690657272
 H          3.4542820986        3.0100030859        1.1695522519
 H          1.5658533259        3.2975033794        2.5515000145
 H         -0.6192226183        2.4306881687        3.3007391455
 H         -1.4895818981        0.3106374915        2.3894977785
 H         -0.3806860812       -2.0617212869        1.4071526174
 C          0.4019689590       -1.8925682831       -0.5745086961
 C          1.5684500646       -2.8005988117       -0.3289898496
 C          0.2870145451       -3.3565465151       -0.8714026733
 H          0.2544958132       -3.6719416106       -1.9034441312
 H         -0.3379701221       -3.9446020008       -0.2149959741
 H          2.4204395961       -2.7348933466       -0.9885063729
 H          1.8220447071       -3.0209733463        0.6967867945
 H          0.4487706452       -1.2110888951       -1.4173507672
