  62
        -98.93945364
 C         -1.1560007190       -1.7572865585       -0.0327135378
 C         -2.1720979744       -1.4026878341        0.8837522544
 C         -3.0830611418       -0.3297317565        0.4567862979
 C         -2.8895307124        0.2555693976       -0.7396205298
 C         -3.6971172283        1.3966189319       -1.2907404036
 C         -3.2774239502        2.7220492903       -0.6251367157
 C         -4.3628132809        3.3702114554        0.2349530265
 H         -3.8898602277        4.1657970095        0.8146329268
 H         -5.1044122763        3.8351032828       -0.4180085037
 C         -5.1053240545        2.4326547612        1.1914793010
 H         -5.6380461510        3.0629756900        1.9067754514
 H         -5.8660336604        1.8748537195        0.6432424089
 C         -4.2310506782        1.4384267405        1.9664976431
 H         -3.2082519046        1.8073194848        2.0481107936
 H         -4.6225962125        1.3622836923        2.9831068304
 C         -4.2155593558        0.0122488217        1.3854818121
 H         -5.1682254239       -0.1884135009        0.8870447103
 H         -4.1235171173       -0.6994178421        2.2115796509
 H         -2.3915880215        2.5319954762       -0.0159954325
 H         -2.9856966948        3.4370732187       -1.3950900124
 H         -3.5115951434        1.4343186690       -2.3640714404
 H         -4.7558896750        1.2056716619       -1.1285502251
 O         -1.8780916034       -0.0896462495       -1.5773513894
 C         -0.9942904707       -1.1094374447       -1.2575104794
 O         -0.1330692282       -1.3373546407       -2.1248923340
 O         -2.3123396641       -1.9595483472        2.0074283142
 C         -0.1943630352       -2.8757914137        0.3255789103
 C          1.2231507435       -2.3606565841        0.3099868972
 C          2.2643595104       -2.9989540742       -0.3497600969
 C          3.5386226243       -2.4562665607       -0.3421411932
 C          3.8051828848       -1.2766612066        0.3274408121
 C          2.7716368247       -0.6338810725        0.9982174375
 C          1.4972415115       -1.1782489721        0.9882103204
 H          0.6932068366       -0.6739639786        1.5107563328
 N          3.0339149675        0.5692644060        1.6890953630
 S          3.5221365997        1.8911274389        0.7844857207
 O          4.7545989828        1.5669207053        0.1139948803
 O          3.5693326433        2.9952689661        1.7157967490
 C          2.2233482907        2.1627834211       -0.4065390055
 C          1.3036000370        3.1653246656       -0.1705761966
 C          0.2717741536        3.3539288020       -1.0751148221
 C          0.1685125687        2.5293218039       -2.1851341833
 C          1.0974103192        1.5247881008       -2.4064509969
 C          2.1378102829        1.3378540477       -1.5103051029
 H          2.8750712879        0.5652741913       -1.6563938714
 H          1.0040988269        0.8688999036       -3.2565211321
 H         -0.6423610600        2.6647912883       -2.8832519543
 H         -0.4477644573        4.1401419283       -0.9108017413
 H          1.4217621600        3.7815227362        0.7065400694
 H          2.2755953123        0.8508994505        2.2948608960
 H          4.7873605070       -0.8329045571        0.3266378164
 H          4.3364743090       -2.9604137356       -0.8661432609
 H          2.0789187030       -3.9186684928       -0.8793915932
 H         -0.4452632687       -3.1605755769        1.3582685574
 C         -0.4184403218       -4.0716863015       -0.5758497558
 C         -0.1128274569       -5.4549221746       -0.0864274676
 C         -1.5357788553       -5.0174598666       -0.2567171683
 H         -2.1106544174       -5.4309287507       -1.0717510214
 H         -2.1200581781       -4.8135508713        0.6288094194
 H          0.2878269156       -6.1733480990       -0.7855657662
 H          0.2687964698       -5.5571857595        0.9181809597
 H         -0.2394909674       -3.8447583234       -1.6208034711
