  62
        -98.93993356
 C          2.7662495217        0.1054971472        0.4012788406
 C          2.7847334122        1.0659873742       -0.6442599194
 C          2.2245635905        2.3832876680       -0.3363193165
 C          1.7497002921        2.6270680264        0.8980900563
 C          1.0903457663        3.8981290283        1.3586628529
 C         -0.4014921342        3.9640251708        1.0006759818
 C         -0.7031654974        4.2513612845       -0.4712993333
 H         -1.7575255536        4.5284556216       -0.5318555524
 H         -0.1194346185        5.1113537203       -0.8026667793
 C         -0.4537081327        3.0603297449       -1.4074288800
 H         -0.4182165461        2.1404852015       -0.8184148960
 H         -1.2926761660        2.9623801427       -2.1012073789
 C          0.8140161766        3.1683544874       -2.2556651430
 H          0.7111101537        3.9949177224       -2.9631714943
 H          0.9204585660        2.2431157872       -2.8281115821
 C          2.1044231338        3.3758972552       -1.4531405379
 H          2.9524884734        3.2214465443       -2.1252319839
 H          2.1468847353        4.3923843483       -1.0623582960
 H         -0.8674567200        3.0166219287        1.2847419571
 H         -0.8490717200        4.7560171615        1.6061996988
 H          1.1878564935        3.9247966446        2.4461481402
 H          1.6101374285        4.7605832040        0.9397850494
 O          1.8290045330        1.7143493718        1.8990575292
 C          2.2796800207        0.4164933010        1.6716502629
 O          2.2161501887       -0.3081341009        2.6830637703
 O          3.2423738568        0.8185844312       -1.7931900145
 C          3.1376132646       -1.3078165235       -0.0166829878
 C          1.9944876943       -1.8669558166       -0.8327392425
 C          2.2099396247       -2.6440030674       -1.9635379595
 C          1.1378180830       -3.1123764823       -2.7042673502
 C         -0.1603166637       -2.7926987473       -2.3515650485
 C         -0.3857329895       -1.9955508050       -1.2325706375
 C          0.6886091795       -1.5706990609       -0.4686705998
 H          0.5047397855       -0.9784779414        0.4147504780
 N         -1.6838759142       -1.5730759873       -0.9085971268
 S         -2.0449727285       -0.8497578161        0.5663013517
 O         -1.3573896102        0.4117218918        0.6588665023
 O         -1.8422995945       -1.7896213130        1.6481065183
 C         -3.7863431614       -0.5593146738        0.3259107340
 C         -4.7087682198       -1.4584188856        0.8259552886
 C         -6.0576042265       -1.2281392754        0.6038242272
 C         -6.4581421927       -0.1101143427       -0.1121423686
 C         -5.5204737116        0.7851262933       -0.6056186033
 C         -4.1707970974        0.5610307399       -0.3860704551
 H         -3.4050299583        1.2318972318       -0.7402218555
 H         -5.8352529954        1.6554218475       -1.1584436728
 H         -7.5081122859        0.0667811305       -0.2838413377
 H         -6.7890437406       -1.9195642526        0.9899951307
 H         -4.3508688803       -2.3075358640        1.3857894552
 H         -2.4146147682       -2.1921436891       -1.2281574172
 H         -0.9931820784       -3.1381468892       -2.9440068211
 H          1.3162265896       -3.7222052528       -3.5769007305
 H          3.2213241854       -2.8633245109       -2.2724637187
 H          4.0013351239       -1.2058739735       -0.6946555153
 C          3.5519212307       -2.2257036756        1.1198317984
 C          2.6173802513       -3.2168170836        1.7390875143
 C          3.7499249877       -3.6939221493        0.8828808887
 H          4.5856774048       -4.1813591827        1.3612982050
 H          3.5057988319       -4.0844330492       -0.0929748760
 H          2.6693341719       -3.3528291217        2.8083738356
 H          1.6116830632       -3.2760586315        1.3498235997
 H          4.2495408068       -1.7421631145        1.7950651624
