  62
        -98.93864076
 C         -0.9962699346       -1.2358032233        0.4758693379
 C         -1.5109121954       -0.0499588761        1.0524900247
 C         -2.3221685497        0.8227282574        0.1838996380
 C         -2.4796075668        0.4787541649       -1.1073683827
 C         -3.3072940754        1.1935686952       -2.1395122424
 C         -4.8148529400        0.9023352954       -1.9893331142
 C         -5.3111678622        0.7495229664       -0.5515006038
 H         -6.3269409794        0.3473033818       -0.5906223500
 H         -4.6932866454        0.0105740972       -0.0374147708
 C         -5.3532574156        2.0388082915        0.2665973058
 H         -6.1200841261        2.6959777491       -0.1508569931
 H         -5.6565716020        1.7766986418        1.2832442767
 C         -4.0475093075        2.8280082159        0.3348084779
 H         -4.2080281425        3.6655998957        1.0203709499
 H         -3.8215476215        3.2610425580       -0.6362325309
 C         -2.8413787768        2.0610087173        0.8744221601
 H         -3.0468924487        1.7518828945        1.9051624652
 H         -1.9979050395        2.7603447935        0.9350339949
 H         -5.0240886240       -0.0361452599       -2.5077412754
 H         -5.3750241339        1.6944099655       -2.4882102968
 H         -3.1009980771        2.2596700364       -2.0936510917
 H         -2.9752359844        0.8358160307       -3.1165384549
 O         -1.9293591671       -0.6467820925       -1.6361121926
 C         -1.1538056370       -1.5126492735       -0.8835656223
 O         -0.6928566082       -2.4703446134       -1.5326069999
 O         -1.3041488080        0.2728852018        2.2538447494
 C         -0.1160647333       -2.1185292097        1.3458182583
 C          1.1919094320       -2.3408417357        0.6297157001
 C          1.7249702041       -3.5844751124        0.3233157845
 C          2.9025058473       -3.6756120309       -0.3999017291
 C          3.5542159813       -2.5414355378       -0.8476059200
 C          3.0305286521       -1.2905521812       -0.5380950628
 C          1.8806172971       -1.2038539083        0.2250465015
 H          1.4740008945       -0.2335782708        0.4669784223
 N          3.6537493021       -0.1094752323       -0.9681553369
 S          2.7282530347        1.2337385792       -1.3476329761
 O          1.4420596075        0.8821960965       -1.9032129701
 O          3.5923165394        2.0271365964       -2.1978659920
 C          2.5349796782        2.0714142986        0.2111985605
 C          1.2708055022        2.3675405366        0.6797021606
 C          1.1401416550        3.0071077221        1.9019842919
 C          2.2727003333        3.3457546103        2.6261265500
 C          3.5367406173        3.0518909634        2.1368066352
 C          3.6728048598        2.4066576887        0.9183749320
 H          4.6353306411        2.1589841896        0.5032761024
 H          4.4139915433        3.3187214716        2.7037469665
 H          2.1656392384        3.8400080759        3.5787427418
 H          0.1556455181        3.2188202352        2.2880121124
 H          0.4134562814        2.0753107028        0.0908195818
 H          4.4188684092       -0.2393887142       -1.6137027536
 H          4.4526524323       -2.6188141751       -1.4409089337
 H          3.3059506780       -4.6477078576       -0.6404154916
 H          1.2061791988       -4.4809379640        0.6207245696
 H          0.0865667759       -1.4995485997        2.2365067653
 C         -0.7719602877       -3.3942435411        1.8482997321
 C         -2.2608338783       -3.4893055931        1.9924337407
 C         -1.5547653028       -4.3086510032        0.9562127947
 H         -1.4716360533       -5.3736690975        1.1178753127
 H         -1.6544482833       -4.0304666755       -0.0808011942
 H         -2.6637506930       -3.9884952211        2.8608613970
 H         -2.8482995643       -2.6454413764        1.6601433173
 H         -0.1851784772       -3.8671823699        2.6299645909
