  62
        -98.93930160
 C          0.2143995335        1.7587475632        0.5345916936
 C          0.9121947058        1.4839691399       -0.6628710474
 C          2.2055386993        0.7866866229       -0.5271634766
 C          2.6453474153        0.4599766886        0.7010865697
 C          3.9424555443       -0.2001070217        1.0950807498
 C          5.2087477165        0.3011876865        0.3833287727
 C          5.7972707037       -0.7186194559       -0.5929839755
 H          6.8598919318       -0.5027595650       -0.7247275732
 H          5.7210287070       -1.7115989812       -0.1457358297
 C          5.1550300847       -0.7360454668       -1.9791584816
 H          5.4574398499        0.1589642526       -2.5272637548
 H          5.5570974403       -1.5968860167       -2.5183356281
 C          3.6270084603       -0.8169977872       -1.9954990140
 H          3.2678330810       -1.5122957780       -1.2390098322
 H          3.3263317220       -1.2164943484       -2.9660541898
 C          2.9358939180        0.5424632675       -1.8193191593
 H          3.6552780658        1.3518296040       -1.9760422996
 H          2.1715711766        0.6700274402       -2.5923815591
 H          5.0011077070        1.2399124085       -0.1277280432
 H          5.9604335066        0.5096275243        1.1465102992
 H          4.0307994621       -0.0301631269        2.1705350457
 H          3.8450775311       -1.2778911030        0.9544871723
 O          1.9083180480        0.6978711708        1.8258077989
 C          0.6875540433        1.3429792492        1.7765707913
 O          0.1318259022        1.4858340728        2.8858782892
 O          0.4821312127        1.8133015177       -1.7994617880
 C         -1.1010702753        2.5112837344        0.4838453236
 C         -2.0890776867        1.7988437492       -0.4075225498
 C         -2.9316153437        2.4617505890       -1.2906793490
 C         -3.8321810854        1.7504235748       -2.0643339789
 C         -3.9233317357        0.3749292001       -1.9629208609
 C         -3.0886285160       -0.2977917190       -1.0767262110
 C         -2.1802301422        0.4160291637       -0.3132630683
 H         -1.5343317119       -0.1085688198        0.3757629931
 N         -3.1391508206       -1.6931493452       -0.9650636313
 S         -2.7564731949       -2.4683028043        0.4611311974
 O         -3.3669998679       -3.7746228477        0.3264592083
 O         -3.1563814466       -1.7025323348        1.6182789034
 C         -0.9900259151       -2.6776307047        0.4119923358
 C         -0.2191227291       -2.2918090554        1.4894715982
 C          1.1415652399       -2.5544277918        1.4694957718
 C          1.7031389617       -3.1933822418        0.3753157731
 C          0.9191873361       -3.5569939562       -0.7091734187
 C         -0.4417305812       -3.3020369734       -0.6910916205
 H         -1.0875717666       -3.5854949852       -1.5051913101
 H          1.3642380862       -4.0437955582       -1.5619234470
 H          2.7578921126       -3.4219269269        0.3716865003
 H          1.7488328869       -2.2568659513        2.3099188170
 H         -0.6898154311       -1.7912479807        2.3224916985
 H         -3.8864781014       -2.1455157217       -1.4700565349
 H         -4.6284823802       -0.1780853135       -2.5643548361
 H         -4.4770261107        2.2761538384       -2.7521052223
 H         -2.8809419354        3.5346718480       -1.3772042982
 H         -1.5022954112        2.4951080653        1.5088731329
 C         -0.8542802408        3.9507982040        0.0783626900
 C         -1.7312676409        5.0488088086        0.5981058950
 C         -0.3273264087        4.9086574104        1.1026641111
 H          0.4078851079        5.6383538435        0.7982209096
 H         -0.1766275494        4.5283984502        2.1029621609
 H         -1.9586607827        5.8799853241       -0.0523801973
 H         -2.5366264884        4.7740956374        1.2627243495
 H         -0.4683905111        4.0352619534       -0.9311330984
