  62
        -98.94000918
 C          2.4926996200        1.2709498109       -0.1367194494
 C          2.2705865801        0.0435271312       -0.8067305600
 C          3.4569118702       -0.8048199388       -0.9972022201
 C          4.6529968301       -0.3781132790       -0.5528037297
 C          5.9255698001       -1.1707421990       -0.6198226098
 C          6.1215215998       -2.0105951796        0.6504634999
 C          4.8908137297       -2.8245872097        1.0505594493
 H          5.1556210995       -3.3973446901        1.9419300691
 H          4.0863680496       -2.1419550198        1.3346270394
 C          4.3802484499       -3.7799162292       -0.0370820713
 H          5.1596429900       -3.9445167989       -0.7818946012
 H          4.1587867298       -4.7463131194        0.4205809182
 C          3.1016393301       -3.3173515089       -0.7384582413
 H          2.3420859999       -3.0635352392        0.0061109886
 H          2.7132539402       -4.1533337986       -1.3265968018
 C          3.2572139103       -2.1237082584       -1.6891593808
 H          4.0678413204       -2.3170445281       -2.3947913507
 H          2.3244933304       -2.0270462382       -2.2532752509
 H          6.9676386298       -2.6817523895        0.4930725398
 H          6.3689033696       -1.3380189400        1.4748478602
 H          5.8990735202       -1.8165940886       -1.4951477601
 H          6.7600877801       -0.4745233490       -0.7168944793
 O          4.8296867700        0.8177081907        0.0649689109
 C          3.7577449999        1.6615032306        0.3033853011
 O          4.0546885498        2.7124988304        0.9063811816
 H         -1.3212899999        1.4992142910       -0.2988104001
 C         -0.9536747401        1.2006869206        0.6675990099
 C          0.3473149498        1.4858318804        1.0484213803
 C          0.7841825295        1.0741046098        2.3059101802
 C         -0.0574645207        0.3829193494        3.1543620997
 C         -1.3488259306        0.0776993296        2.7603750193
 C         -1.7971198903        0.4886859302        1.5112033294
 N         -3.1220744503        0.2226130704        1.1126048390
 S         -3.4191331399       -0.3649199489       -0.4450895714
 O         -2.7140365499       -1.6099790288       -0.6544561318
 O         -3.1903419397        0.6857132716       -1.4025017109
 C         -5.1707380500       -0.6787018989       -0.3115007019
 C         -6.0425101899        0.3893406012       -0.4056813816
 C         -7.4025515500        0.1575029311       -0.2763108920
 C         -7.8661779300       -1.1310906089       -0.0556855427
 C         -6.9796498401       -2.1934286790        0.0345697270
 C         -5.6179376901       -1.9677062590       -0.0925578426
 H         -4.8919070301       -2.7631273690       -0.0383443828
 H         -7.3427509601       -3.1945727691        0.2025895965
 H         -8.9253198801       -1.3089823790        0.0434226970
 H         -8.0952985699        0.9803663312       -0.3485500818
 H         -5.6366627299        1.3708698112       -0.5864632511
 H         -3.5964132704       -0.3734111999        1.7797251086
 H         -2.0047596608       -0.4740023306        3.4172425889
 H          0.2953344791        0.0694861290        4.1255739396
 H          1.7999549294        1.3008637696        2.6023035805
 C          1.3290586000        2.2040446408        0.1542317608
 H          1.7516768999        3.0476479205        0.7190007313
 C          0.7231612603        2.7328529114       -1.1273668291
 C         -0.0418743397        4.0208733614       -1.1117707787
 C          1.3088957304        3.9589426616       -1.7577816984
 H          1.3701639707        4.0046229321       -2.8347683784
 H          2.1409980303        4.4272968414       -1.2521059480
 H         -0.1282700499        4.5372177209       -0.1676217985
 H         -0.9127009196        4.1073879517       -1.7438368088
 H          0.3816272904        1.9460905817       -1.7906360395
 O          1.1432208502       -0.3310139386       -1.2254394704
