  62
        -98.93700720
 C         -2.1331997388       -1.1748001921        0.0792935351
 C         -2.0979347768       -0.0270984915       -0.7526216123
 C         -2.7459376484        1.1749262505       -0.2007971780
 C         -3.2911168774        1.1515281365        1.0271069688
 C         -3.9532247085        2.3058011900        1.7302814448
 C         -5.4238250830        2.5152377268        1.3439663749
 C         -5.6547589076        3.0901815269       -0.0540596593
 H         -6.7033991182        3.3890286598       -0.1084041769
 H         -5.0519694507        3.9900870826       -0.1794037067
 C         -5.3617530413        2.1097714980       -1.1982989916
 H         -5.3281812385        1.0909440248       -0.8056120120
 H         -6.1745902689        2.1461895418       -1.9270596864
 C         -4.0627646297        2.3888311290       -1.9548012797
 H         -3.9346661797        1.6153980028       -2.7164559013
 H         -4.1332491027        3.3532227011       -2.4628571548
 C         -2.8081377553        2.3933553299       -1.0717515747
 H         -2.7779161335        3.2970448696       -0.4629188073
 H         -1.9268190351        2.3812387922       -1.7186243317
 H         -5.9476465777        1.5612265201        1.4368420365
 H         -5.8560163619        3.2047876767        2.0727082467
 H         -3.3902907321        3.2200718796        1.5395022234
 H         -3.9056717650        2.0847141874        2.7987412319
 O         -3.2850166786        0.0351394619        1.8046126562
 C         -2.7146182908       -1.1409407975        1.3498010500
 O         -2.7916952154       -2.0889874865        2.1583021957
 O         -1.5739994748        0.0211939677       -1.8944065206
 C         -1.4922020602       -2.5071475474       -0.2753209514
 C         -0.1347456208       -2.6203204400        0.3728509677
 C          0.2708236636       -3.8061892203        0.9742781513
 C          1.5245086703       -3.9090239470        1.5500387295
 C          2.3963283403       -2.8360901347        1.5310340478
 C          1.9938874767       -1.6391861409        0.9470401857
 C          0.7345241814       -1.5389832660        0.3741281482
 H          0.4346490980       -0.6059292858       -0.0796644387
 N          2.8417765348       -0.5212323970        0.9593385776
 S          2.7281199036        0.6087954729       -0.2898802280
 O          1.6501332236        1.5181606760        0.0058612343
 O          2.6896283241       -0.0695208492       -1.5649852237
 C          4.2903969368        1.4455923626       -0.0902053729
 C          5.3631858397        1.0759392680       -0.8792950320
 C          6.5821894550        1.7091497016       -0.6936691811
 C          6.7079983048        2.6936923396        0.2747730135
 C          5.6220139034        3.0551258904        1.0584159120
 C          4.4002421786        2.4266714448        0.8771130096
 H          3.5261288027        2.6789507242        1.4547570627
 H          5.7224163805        3.8233035761        1.8080778983
 H          7.6574172646        3.1849629298        0.4176920773
 H          7.4268187911        1.4329966761       -1.3039737463
 H          5.2148820641        0.3115322525       -1.6250247759
 H          3.8010740366       -0.7514564143        1.1792036489
 H          3.3760434413       -2.9154276512        1.9767183173
 H          1.8279670871       -4.8350102892        2.0142158369
 H         -0.4104443293       -4.6439295877        1.0006274141
 H         -2.1350849475       -3.2777170524        0.1827148389
 C         -1.4425620806       -2.7940914012       -1.7684843198
 C         -0.2157345383       -2.6009671376       -2.6024822644
 C         -0.6926996865       -3.9853604075       -2.2884063914
 H         -1.1393281151       -4.5682156979       -3.0796945889
 H         -0.1166652153       -4.5628636095       -1.5815378560
 H         -0.3498779170       -2.2130240105       -3.6008465447
 H          0.6785469460       -2.2313731064       -2.1230589909
 H         -2.3873983091       -2.5656819293       -2.2511659044
