  62
        -98.94850171
 C          1.2315731321        1.5254199883        0.4875009822
 C          2.1453569169        1.1895451844       -0.5402394858
 C          3.1967818287        0.2308560762       -0.1727002075
 C          3.2396784409       -0.2568745451        1.0802372946
 C          4.2325404903       -1.2678786511        1.5746245411
 C          3.6968913776       -2.6984273179        1.4268687644
 C          3.1297395043       -3.0129714696        0.0420618977
 H          2.8336813585       -4.0649003190        0.0471756194
 H          2.2131822724       -2.4371242352       -0.1120954900
 C          4.1032796546       -2.7631697640       -1.1183622435
 H          5.1266287949       -2.7304697338       -0.7416208843
 H          4.0385987624       -3.6054290144       -1.8106238042
 C          3.8201200386       -1.4984603510       -1.9315774417
 H          2.7628043350       -1.4753152454       -2.2099863201
 H          4.4021180195       -1.5518595399       -2.8557863492
 C          4.1677521210       -0.1708468171       -1.2460990850
 H          5.1863598473       -0.2127230450       -0.8550273765
 H          4.1201733290        0.6172948444       -2.0033285817
 H          4.5064222347       -3.3943749764        1.6566840465
 H          2.8991637268       -2.8496612909        2.1580441078
 H          5.1615517389       -1.1579196737        1.0184950470
 H          4.4260169290       -1.0710069849        2.6307930485
 O          2.3490712877        0.0945481452        2.0423934161
 C          1.3037964216        0.9589787604        1.7589283860
 O          0.5175249794        1.1459701340        2.7111756530
 H         -0.4118893340       -0.1333591808       -0.2436265403
 C         -0.9674368733        0.4861592718       -0.9296325013
 C         -0.8157413980        1.8639553465       -0.8825244072
 C         -1.5181246026        2.6362364857       -1.7999972594
 C         -2.3350496547        2.0323637993       -2.7403691017
 C         -2.4872888355        0.6576504747       -2.7773897663
 C         -1.7914854019       -0.1225754684       -1.8614610167
 N         -1.9019981142       -1.5210716537       -1.8538308072
 S         -1.8507775664       -2.3438856121       -0.3992118738
 O         -0.5077786156       -2.3716163843        0.1223274350
 O         -2.4360515909       -3.6328829054       -0.7017461213
 C         -2.9433965068       -1.4250239008        0.6705740173
 C         -2.4498209195       -0.6495642824        1.6989862738
 C         -3.3371635138        0.0960057575        2.4602860562
 C         -4.6942848751        0.0532259912        2.1842743578
 C         -5.1769294470       -0.7397611167        1.1535606980
 C         -4.2951949248       -1.4826978210        0.3871727065
 H         -4.6313609711       -2.1194838630       -0.4149505785
 H         -6.2337928171       -0.7770846162        0.9445305418
 H         -5.3781531109        0.6389440758        2.7780111047
 H         -2.9498305899        0.7088026431        3.2589054510
 H         -1.3898516998       -0.6249395476        1.8995880731
 H         -2.5911516195       -1.9029788580       -2.4841558442
 H         -3.1260692982        0.1912767180       -3.5113705338
 H         -2.8677938450        2.6429318442       -3.4533688265
 H         -1.4187598810        3.7092971765       -1.7835922441
 C          0.0691644799        2.4535373716        0.1911739195
 H         -0.5223989552        2.5048870785        1.1182395301
 C          0.5668029362        3.8447851032       -0.1456484293
 C         -0.2294889429        5.0516785590        0.2479616479
 C          1.0449518136        4.7282180819        0.9661982663
 H          1.9103373401        5.3505660949        0.7950619107
 H          0.9827394098        4.3352548679        1.9709295578
 H         -1.1584494950        4.8901616495        0.7737662300
 H         -0.2379064930        5.9027295907       -0.4162990087
 H          1.1166544096        3.8729684605       -1.0790845725
 O          2.0862523832        1.6625431399       -1.7054548359
