  62
        -98.95211741
 C          2.3610304014        0.3247909339        0.0393751227
 C          1.5132509972       -0.2382874362       -0.9423816036
 C          1.5049112314       -1.7042294989       -1.0238195016
 C          2.2823784866       -2.4129535714       -0.1853187501
 C          2.3863508040       -3.9105055955       -0.1684177731
 C          1.3974031172       -4.5454035006        0.8171773417
 C         -0.0391118773       -4.0442994208        0.6674669540
 H         -0.0941394532       -2.9962209335        0.9712097754
 H         -0.6540826221       -4.6075830010        1.3737638135
 C         -0.6226220219       -4.1892945554       -0.7448794569
 H         -1.6419597050       -4.5721391919       -0.6599502060
 H         -0.0461896594       -4.9199010197       -1.3145330539
 C         -0.7049877957       -2.8754579749       -1.5245416303
 H         -1.1540650229       -2.1122954786       -0.8838343024
 H         -1.3706254474       -3.0246950146       -2.3792542260
 C          0.6252526392       -2.3353211347       -2.0660406968
 H          0.3965117416       -1.5417730095       -2.7834354149
 H          1.1586546298       -3.1305414517       -2.5919227874
 H          1.7301801036       -4.3259834268        1.8344789314
 H          1.4227389584       -5.6283421207        0.6777400600
 H          3.4019246517       -4.1765242016        0.1314817003
 H          2.2046590201       -4.2889494606       -1.1727675760
 O          3.0680205335       -1.8379882257        0.7619155172
 C          3.1123085474       -0.4614295595        0.9104458634
 O          3.8537717331       -0.0647049975        1.8341915202
 O          0.8094654608        0.4537292165       -1.7252760010
 C          2.4474313489        1.8339177619        0.1828459627
 C          1.0664067931        2.4261746722        0.3230705509
 C          0.6688406988        3.5965415984       -0.3119324105
 C         -0.6203310591        4.0763397846       -0.1568392913
 C         -1.5438045185        3.3910268258        0.6111741194
 C         -1.1519983062        2.2253793998        1.2591404737
 C          0.1512232570        1.7723166229        1.1378571677
 H          0.4425476353        0.8673567750        1.6511976085
 N         -2.0579849169        1.4758085650        2.0387019734
 S         -2.3888340414       -0.0881449068        1.5316366878
 O         -3.3625354252       -0.5896867853        2.4781154657
 O         -1.1649769460       -0.8367000335        1.4194665561
 C         -3.1718413558        0.1139734656       -0.0592891292
 C         -4.5484608088        0.0120161734       -0.1287269528
 C         -5.1787627914        0.2229417539       -1.3438151550
 C         -4.4250052350        0.5406201722       -2.4639244050
 C         -3.0457674690        0.6435789667       -2.3757474194
 C         -2.4059588930        0.4307412204       -1.1635638114
 H         -1.3317741730        0.5013394237       -1.0838754004
 H         -2.4512377283        0.8894588916       -3.2409410478
 H         -4.9139731137        0.7078353016       -3.4107480070
 H         -6.2515022045        0.1406372726       -1.4130610283
 H         -5.0905336471       -0.2399450383        0.7685152305
 H         -2.9308964160        1.9538323257        2.2175073674
 H         -2.5575915381        3.7492965953        0.7094413584
 H         -0.9150115550        4.9860647536       -0.6572529251
 H          1.3676323847        4.1305028113       -0.9348855135
 H          3.0019081433        2.0219628903        1.1143966433
 C          3.2315517476        2.4145261031       -0.9775864700
 C          4.0661927381        3.6451401149       -0.7914711068
 C          4.7259880978        2.3106211643       -0.9612301566
 H          5.2392331620        2.0997412920       -1.8873896935
 H          5.1778496087        1.8453097453       -0.0969508787
 H          4.1315703017        4.3526252208       -1.6043560488
 H          4.0830979957        4.0950874684        0.1897041894
 H          2.7311612679        2.2715000250       -1.9286742049
