  62
        -98.94524060
 C         -1.8462995569       -1.2880116168       -0.0685167611
 C         -2.9803317365       -0.8128811507        0.6308120054
 C         -3.6579173033        0.3465560855        0.0383086112
 C         -3.1866976107        0.8857530491       -1.1010239595
 C         -3.7825692878        2.0538405574       -1.8396208582
 C         -3.3510448672        3.4252581360       -1.3019922787
 C         -3.9629054408        3.8195411746        0.0429201321
 H         -3.7497223323        4.8796606205        0.1940473661
 H         -5.0466582108        3.7093509970       -0.0054292801
 C         -3.4171104867        3.0315897542        1.2421271234
 H         -2.4805391815        2.5436869700        0.9605504735
 H         -3.1838688222        3.7214914323        2.0565680196
 C         -4.3764997947        1.9793355603        1.7987750853
 H         -5.2625105266        2.4715151455        2.2056973760
 H         -3.8759810892        1.4577088493        2.6189256625
 C         -4.8265707240        0.9301076689        0.7736558099
 H         -5.3207559462        0.1170508271        1.3112405202
 H         -5.5372208383        1.3691336364        0.0737329235
 H         -2.2612283101        3.4465730502       -1.2258223644
 H         -3.6454651598        4.1725835595       -2.0423770105
 H         -3.4469986995        1.9699470786       -2.8754823142
 H         -4.8703939459        1.9817470639       -1.8205132144
 O         -2.0911081055        0.4001730336       -1.7428460606
 C         -1.3890289266       -0.6915214575       -1.2441564710
 O         -0.4021285478       -1.0191851896       -1.9253672942
 O         -3.4051569224       -1.3305476942        1.6993210756
 C         -1.0860305132       -2.4803563706        0.4804457019
 C          0.3641060882       -2.1329636390        0.7144333821
 C          1.4064747694       -3.0089438405        0.4388865362
 C          2.7192611280       -2.6376167122        0.6748128876
 C          3.0240277600       -1.3875644911        1.1799705270
 C          1.9892254676       -0.5025549307        1.4556758113
 C          0.6749399809       -0.8833929641        1.2359183937
 H         -0.1265948842       -0.1894877666        1.4590316156
 N          2.2888035590        0.7831643552        1.9386812409
 S          3.5255531603        1.6189651121        1.1770526084
 O          4.7865743265        1.2502158140        1.7719447784
 O          3.1646168815        3.0151981986        1.2938877779
 C          3.4950188343        1.1005832850       -0.5299895303
 C          2.3130159255        1.2176590956       -1.2333513389
 C          2.2692835878        0.7929287898       -2.5505014678
 C          3.4077778921        0.2664730537       -3.1410666783
 C          4.5911801908        0.1660451928       -2.4262016145
 C          4.6372833584        0.5825395238       -1.1056514002
 H          5.5318664914        0.5114495595       -0.5083986000
 H          5.4742356408       -0.2424695953       -2.8906192185
 H          3.3670822495       -0.0699914359       -4.1649587828
 H          1.3407187363        0.8488159141       -3.0951254292
 H          1.4384984543        1.6264902706       -0.7515321029
 H          1.4785392042        1.3726090691        2.0609584090
 H          4.0406445391       -1.0812447218        1.3664812407
 H          3.5175064930       -3.3299033437        0.4560201373
 H          1.1912281742       -3.9841459421        0.0345714380
 H         -1.5478508907       -2.6989634031        1.4554643351
 C         -1.2761237582       -3.6803100875       -0.4251920581
 C         -1.3014589371       -5.0670786868        0.1427890334
 C         -2.5669262644       -4.4381249456       -0.3550237622
 H         -3.0018624795       -4.8038280794       -1.2730394778
 H         -3.2957563776       -4.1071060936        0.3705593497
 H         -0.8687525064       -5.8692964693       -0.4358040318
 H         -1.1765761903       -5.1743924468        1.2097188162
 H         -0.8346064551       -3.5337778276       -1.4045843686
