  62
        -98.94584839
 C          1.5701963977        1.4438373820       -0.1867051438
 C          1.5553985303        0.0564005709       -0.4701242314
 C          2.8723824754       -0.5666375264       -0.6676506587
 C          3.9800987142        0.1930540945       -0.5902249347
 C          5.3833106670       -0.3246648535       -0.7157911428
 C          5.9570662065       -0.7106724402        0.6548368545
 C          5.0287873631       -1.5960972925        1.4864891680
 H          5.5497070308       -1.8267730881        2.4184304249
 H          4.1350294087       -1.0263307032        1.7510125441
 C          4.6102666563       -2.9023852660        0.7972483700
 H          4.6975798624       -3.7197825365        1.5162107798
 H          5.2921624433       -3.1211599284       -0.0253343850
 C          3.1703751600       -2.9143643330        0.2800465768
 H          2.4915213722       -2.6024545720        1.0777331115
 H          2.9147853000       -3.9435644758        0.0149180150
 C          2.8972013537       -2.0419640696       -0.9515119299
 H          3.6210262765       -2.2735775584       -1.7353775395
 H          1.8962951792       -2.2885833178       -1.3172365813
 H          6.9086383387       -1.2224420237        0.4993631468
 H          6.1525511738        0.2047049932        1.2184402125
 H          5.3887725397       -1.1870834175       -1.3794446673
 H          6.0031762794        0.4611915519       -1.1507423213
 O          3.9504982221        1.5270032187       -0.3347843968
 C          2.7492932311        2.1828336108       -0.1135820641
 O          2.8634260505        3.4001247070        0.1377787493
 H         -2.3849994979        1.3398001377        0.0187777253
 C         -1.8617254688        1.0829277211        0.9234169863
 C         -0.5387006873        1.4512007631        1.1040770595
 C          0.0809984486        1.1382780503        2.3118434030
 C         -0.5989731133        0.4505193817        3.2974075861
 C         -1.9079191670        0.0471744056        3.0964768071
 C         -2.5402512664        0.3692231034        1.9024504828
 N         -3.8679097870       -0.0122651681        1.6723705746
 S         -4.4181504306       -0.3279457695        0.1287382773
 O         -4.6604958911        0.9094014242       -0.5714600038
 O         -5.5833495607       -1.1626580828        0.3376374234
 C         -3.1507283091       -1.2681305736       -0.7018112426
 C         -2.6685696225       -2.4113762112       -0.0984147539
 C         -1.7080489682       -3.1606154989       -0.7559978228
 C         -1.2514807106       -2.7591856411       -2.0006560644
 C         -1.7474379600       -1.6109259316       -2.5947658436
 C         -2.7056035767       -0.8556892874       -1.9400834921
 H         -3.1120499087        0.0496987489       -2.3636988537
 H         -1.3823980916       -1.2950442487       -3.5595906883
 H         -0.4988445551       -3.3411094389       -2.5094933729
 H         -1.3115865312       -4.0502987908       -0.2934139793
 H         -3.0443137653       -2.7022689662        0.8694082109
 H         -4.2641489787       -0.6390321439        2.3563046764
 H         -2.4352756415       -0.5071501817        3.8576394673
 H         -0.1030252174        0.2126928424        4.2266263815
 H          1.1105394329        1.4354827218        2.4616701590
 C          0.2545482440        2.1665003165        0.0384360996
 H          0.5084881437        3.1721819877        0.4038292554
 C         -0.4888300433        2.2931805308       -1.2751897262
 C         -1.4525579974        3.4187966340       -1.4959085625
 C         -0.1367455243        3.4061048904       -2.2135252740
 H         -0.1277042247        3.2040107514       -3.2740812575
 H          0.6279129222        4.0998588764       -1.8950459703
 H         -1.5847604001        4.1280787153       -0.6926814320
 H         -2.3541903769        3.2256750083       -2.0583446885
 H         -0.7227439094        1.3276635099       -1.7102080818
 O          0.5024952765       -0.6247864953       -0.5509030816
