  62
        -98.93133361
 C          2.1057112006        0.7898283411        0.8297547401
 C          2.1664952947        0.2303206048       -0.4709292338
 C          2.4350993531       -1.2146930080       -0.5319537893
 C          2.5586646282       -1.9151605142        0.6093599496
 C          2.8713441881       -3.3806580937        0.6899300501
 C          4.3850191122       -3.6269122439        0.7601387047
 C          5.1830410961       -2.8753848042       -0.3051596128
 H          5.1040498044       -1.8022253546       -0.1176476122
 H          6.2325767912       -3.1489240043       -0.1782805081
 C          4.7484926774       -3.1690188649       -1.7477631063
 H          5.6402400395       -3.3305065759       -2.3568039824
 H          4.1632629599       -4.0886966841       -1.7788718358
 C          3.9539902337       -2.0425063867       -2.4111850194
 H          3.8854825727       -2.2576019317       -3.4807624868
 H          4.4930143185       -1.0984316310       -2.3004663367
 C          2.5235342899       -1.8420333453       -1.8944626601
 H          2.0141663167       -1.1510613703       -2.5732053740
 H          1.9852264489       -2.7924281773       -1.9133667157
 H          4.7411194321       -3.3096188549        1.7429056763
 H          4.5637083833       -4.6992317355        0.6632620632
 H          2.4026632840       -3.7812109861        1.5905550128
 H          2.4483912326       -3.8820715760       -0.1786315919
 O          2.4511843585       -1.3497960162        1.8395990121
 C          2.2109596979        0.0063896766        1.9780718310
 O          2.1063256602        0.3911045015        3.1625497004
 H         -0.4398742461        1.1530758798        1.5927205676
 C         -0.5765959493        1.8121945796        0.7420056976
 C          0.5132222721        2.5505240897        0.2821893230
 C          0.3090750037        3.3709012346       -0.8184906401
 C         -0.9301527198        3.4309253339       -1.4377334845
 C         -1.9941285843        2.6719492180       -0.9908904742
 C         -1.8064974967        1.8537463468        0.1134407202
 N         -2.8763421428        1.0244361263        0.5520678916
 S         -2.9547295013       -0.4199555862       -0.3322850441
 O         -2.0567525020       -1.3992328002        0.2480465610
 O         -2.7679285451       -0.1153730639       -1.7271225690
 C         -4.6456599820       -0.9042264160       -0.0418774565
 C         -5.6404085563       -0.2595686651       -0.7513980229
 C         -6.9620227819       -0.5987281040       -0.5114351865
 C         -7.2654536868       -1.5705323144        0.4307236114
 C         -6.2561085711       -2.2085604075        1.1351740758
 C         -4.9318020932       -1.8723108387        0.9003580722
 H         -4.1141098389       -2.3468582149        1.4190516298
 H         -6.4938684986       -2.9651849753        1.8655524014
 H         -8.2948220679       -1.8339764463        0.6157652582
 H         -7.7495022194       -0.1056980651       -1.0581855444
 H         -5.3552036207        0.4819520470       -1.4789208062
 H         -2.7536225360        0.7601013310        1.5222556458
 H         -2.9485748345        2.6843383440       -1.4901250870
 H         -1.0567893457        4.0695597759       -2.2988678304
 H          1.1132021185        3.9484002909       -1.2364707732
 C          1.7990496714        2.2727013890        1.0253458229
 H          1.5658340286        2.3740443682        2.0984700032
 C          3.0615182200        3.0906252252        0.8071098124
 C          3.6111632751        3.5123275569       -0.5195571783
 C          3.0965410999        4.5439416772        0.4410667969
 H          3.8207654664        5.1679843548        0.9436979683
 H          2.1657118410        5.0444983003        0.2313715421
 H          4.6801178170        3.4379758211       -0.6612437659
 H          3.0484569345        3.2603156139       -1.4032468787
 H          3.8053014083        2.7739043210        1.5361124855
 O          2.0023886555        0.8925473189       -1.5261881688
