  62
        -98.93507628
 C         -2.7353934843       -0.0296571730       -0.1621321602
 C         -2.0127166398        0.7523739293       -1.0923621522
 C         -1.7886375032        2.1663163829       -0.7342425352
 C         -2.2259454274        2.6226028093        0.4508586593
 C         -2.0156211231        3.9860763850        1.0483478758
 C         -0.7441061302        4.0019908486        1.9149983748
 C          0.5404641989        4.3575286657        1.1691240042
 H          0.5082269198        5.4108464621        0.8808081774
 H          1.3667976028        4.2315213005        1.8726403545
 C          0.8311280777        3.5154133502       -0.0755626642
 H          0.6479443389        2.4607331186        0.1449344882
 H          1.8964972749        3.6166334610       -0.2957367517
 C          0.0265200654        3.9604692910       -1.3059603640
 H          0.7043907633        4.0900838321       -2.1525771475
 H         -0.4100936481        4.9393919926       -1.1082260237
 C         -1.0690841876        2.9901224271       -1.7682045441
 H         -1.8161922813        3.5477261679       -2.3436312997
 H         -0.6344974459        2.2545710384       -2.4523254193
 H         -0.8782155982        4.7255905509        2.7220104610
 H         -0.6352474344        3.0152538483        2.3740335364
 H         -1.9747936787        4.7473598839        0.2749942372
 H         -2.8777955578        4.1806578983        1.6895454668
 O         -2.9030999131        1.8334647983        1.3299913226
 C         -3.1667917592        0.5083755192        1.0545141719
 O         -3.7954728168       -0.0863041127        1.9537387282
 O         -1.5486672312        0.3141003294       -2.1815839977
 C         -3.0085347946       -1.5190959671       -0.3328837011
 C         -1.8032376133       -2.2777183808        0.1704094376
 C         -1.8895387528       -3.1738875297        1.2285077229
 C         -0.7493975025       -3.7639522509        1.7483002073
 C          0.5006536786       -3.4527594300        1.2421766840
 C          0.5911615656       -2.5665752495        0.1786959584
 C         -0.5525692970       -2.0097193210       -0.3664666098
 H         -0.4663744942       -1.3141125877       -1.1881230691
 N          1.8720706708       -2.1572630546       -0.2880997605
 S          2.4711640245       -0.9703228367        0.7713416759
 O          2.8366405393       -1.6283632226        2.0006296181
 O          1.5250684189        0.1181301872        0.8912134260
 C          3.9350496376       -0.4299276150       -0.0897537358
 C          5.0937296631       -1.1721251892        0.0343269418
 C          6.2209628388       -0.7731217587       -0.6658860703
 C          6.1696949801        0.3526726510       -1.4745237240
 C          4.9985294726        1.0863117430       -1.5894769119
 C          3.8667299803        0.6917389377       -0.8932679426
 H          2.9358533593        1.2344560358       -0.9472689662
 H          4.9611045586        1.9616676596       -2.2178539857
 H          7.0483422438        0.6621494931       -2.0180724190
 H          7.1338780645       -1.3398179260       -0.5792158321
 H          5.0862005470       -2.0342441420        0.6801978706
 H          1.7806357839       -1.7186752668       -1.1981159702
 H          1.4013578131       -3.8578369182        1.6735456663
 H         -0.8332410744       -4.4527962281        2.5753288374
 H         -2.8547637710       -3.3812175910        1.6674128515
 H         -3.8515409194       -1.7485956966        0.3328538999
 C         -3.3830014550       -1.9290505211       -1.7421499717
 C         -4.1345883926       -3.2088008826       -1.9463518893
 C         -4.8215525598       -1.8937631280       -2.1576847523
 H         -5.0575509665       -1.5878906617       -3.1656560872
 H         -5.5458227255       -1.5722715363       -1.4231759784
 H         -3.8987470346       -3.8106753688       -2.8103343838
 H         -4.3959079308       -3.7812493260       -1.0692019437
 H         -2.6455241633       -1.6521965240       -2.4831292365
