  62
        -98.94204107
 C         -1.5142886881       -1.3554524368        0.2793599354
 C         -2.1184545134       -0.8700645612       -0.9059884043
 C         -3.0770547741        0.2315799251       -0.7269864180
 C         -3.3371142295        0.6888132124        0.5115118323
 C         -4.2284495850        1.8547321325        0.8258762520
 C         -3.4262099602        3.1631692906        0.8702107023
 C         -2.5089062834        3.3648916750       -0.3362420130
 H         -2.0090896770        4.3278787775       -0.2099000005
 H         -1.7316701111        2.5963930242       -0.3265572454
 C         -3.2310016255        3.3384237658       -1.6910886657
 H         -4.2998851998        3.4964487527       -1.5430214632
 H         -2.8626972372        4.1664442627       -2.3006719786
 C         -3.0178979772        2.0592086352       -2.5031557588
 H         -3.3953222539        2.2328996154       -3.5144388385
 H         -1.9477686025        1.8509101099       -2.5881080511
 C         -3.7114554015        0.8013688847       -1.9643312667
 H         -4.7705532565        1.0074915143       -1.7978245266
 H         -3.6278780748        0.0241715993       -2.7297728468
 H         -2.8104438746        3.1616002897        1.7723220266
 H         -4.1266580585        3.9972431988        0.9387547468
 H         -5.0127029563        1.9215302428        0.0745872383
 H         -4.6863743469        1.6860771222        1.8018427924
 O         -2.7643416977        0.1722468323        1.6278019014
 C         -1.8331364143       -0.8513253311        1.5405808175
 O         -1.3687165155       -1.2191572891        2.6365659536
 H          0.3499808412        0.0525522946       -0.4342398269
 C          1.0370689711       -0.7060043628       -0.7890594625
 C          0.7503973543       -2.0448617477       -0.5673876098
 C          1.6597939024       -2.9923602050       -1.0279929142
 C          2.8170475700       -2.6077185535       -1.6815968432
 C          3.0950691744       -1.2694497468       -1.9001539886
 C          2.1878486930       -0.3188537403       -1.4599846087
 N          2.4825527086        1.0570524697       -1.6516333263
 S          3.5088775106        1.6656712388       -0.4716977797
 O          3.5298149141        3.0986571631       -0.6557839046
 O          4.7725052203        0.9838991115       -0.5760762300
 C          2.7002196966        1.2444246207        1.0604112952
 C          1.7376530489        2.0988304881        1.5601857349
 C          1.0162423956        1.7145121927        2.6788029183
 C          1.2571312663        0.4823031418        3.2670201849
 C          2.2258900404       -0.3642030260        2.7509373947
 C          2.9537037926        0.0149905492        1.6347076419
 H          3.7105506530       -0.6180430073        1.2001600160
 H          2.4025894601       -1.3245443556        3.2076214726
 H          0.6728162176        0.1710475919        4.1180066687
 H          0.2582197496        2.3674884741        3.0818784361
 H          1.5764432921        3.0472020021        1.0714707814
 H          1.6521799857        1.6332366369       -1.6741227545
 H          3.9983753437       -0.9469116651       -2.3911659541
 H          3.5123038752       -3.3584230700       -2.0246119871
 H          1.4593186313       -4.0392508700       -0.8662128977
 C         -0.4748743024       -2.4545299813        0.2170951849
 H         -0.1568765066       -2.6254288376        1.2569098290
 C         -1.0898736623       -3.7362243585       -0.3166720423
 C         -0.7109644562       -5.0666814208        0.2592562864
 C         -2.0604110369       -4.4831691666        0.5469238694
 H         -2.9295255885       -4.9262392489        0.0844981011
 H         -2.2458865916       -4.0881151477        1.5355257653
 H         -0.6529108813       -5.9167677150       -0.4038609236
 H          0.0081967502       -5.0819453587        1.0645034342
 H         -1.3067806556       -3.6812117179       -1.3770622634
 O         -1.8629135207       -1.3166704884       -2.0547705014
