  62
        -98.93566077
 C         -2.5915163542       -0.2076914478       -0.1294503203
 C         -2.2698404962       -1.3160828041       -0.9521685307
 C         -1.5701686227       -2.4309704578       -0.3045008046
 C         -1.3015214628       -2.3690894444        1.0113940715
 C         -0.5736278372       -3.4061225935        1.8222125479
 C          0.9238661945       -3.5439618281        1.4816166755
 C          1.2395382517       -4.6740907555        0.4938794238
 H          2.1608874393       -5.1675393614        0.8100041885
 H          0.4467897078       -5.4213323200        0.5524278806
 C          1.4385452917       -4.2581953174       -0.9670809809
 H          1.3985293292       -5.1628176055       -1.5785548946
 H          2.4344635336       -3.8239932281       -1.0829108913
 C          0.4408698842       -3.2419399330       -1.5255379885
 H          0.6938517032       -2.2402729854       -1.1642966877
 H          0.5634543073       -3.2062745046       -2.6105923717
 C         -1.0370758132       -3.5228508385       -1.1855811089
 H         -1.6353269609       -3.5123119712       -2.0991235075
 H         -1.1465705049       -4.4959527262       -0.7091527205
 H          1.4485322290       -3.7495982371        2.4162362141
 H          1.2900968333       -2.5863320362        1.1074216619
 H         -0.6782224078       -3.0945132935        2.8631554639
 H         -1.0709029797       -4.3711908591        1.7042513374
 O         -1.6867448408       -1.3198738285        1.7825099509
 C         -2.2484806599       -0.1816782385        1.2244594071
 O         -2.4086267573        0.7463284162        2.0400519236
 H         -0.4783323007        0.9553093071       -1.1573759722
 C         -0.7620105108        1.8853391287       -0.6840508269
 C         -2.1073584333        2.1546638209       -0.4602004937
 C         -2.4533122577        3.3610722437        0.1302225912
 C         -1.4660195109        4.2512873027        0.5202916655
 C         -0.1272074251        3.9475777095        0.3587410584
 C          0.2273909751        2.7461911610       -0.2472657721
 N          1.5749446626        2.3867575824       -0.4307354788
 S          1.9600427498        0.7411967583       -0.4013403937
 O          1.7535238416        0.2038145447       -1.7237226427
 O          1.2800677355        0.0664093007        0.6806336999
 C          3.7094928535        0.8309299573       -0.0684158507
 C          4.5696911437        1.1146914399       -1.1125285792
 C          5.9271638911        1.2163214549       -0.8530744844
 C          6.3993311689        1.0337637279        0.4384123177
 C          5.5244197218        0.7472230775        1.4754261655
 C          4.1650611335        0.6459956112        1.2229416195
 H          3.4473469323        0.4180168891        1.9950334739
 H          5.8937982902        0.6022118673        2.4777533628
 H          7.4562916218        1.1123195762        0.6378403123
 H          6.6105426382        1.4359265272       -1.6573001892
 H          4.1559422117        1.2376713195       -2.0997411458
 H          2.2080263070        2.9308062746        0.1393022974
 H          0.6382875524        4.6255636112        0.7043720748
 H         -1.7449287651        5.1836834168        0.9875740778
 H         -3.4897960986        3.5891197145        0.3177421732
 C         -3.0798277546        1.0580016642       -0.8188147219
 H         -2.9625651471        0.8376834413       -1.8940966194
 C         -4.5405783698        1.4181662132       -0.6126967124
 C         -5.5510822393        0.3594900842       -0.2884655052
 C         -5.2050907034        1.4019152937        0.7298761849
 H         -5.9370497281        2.1675232078        0.9428344919
 H         -4.6062808092        1.1170317579        1.5795789681
 H         -5.1830678444       -0.6447823391       -0.1339868790
 H         -6.5168312704        0.4040959131       -0.7691705179
 H         -4.8632951710        2.1924114885       -1.3026360632
 O         -2.5370390901       -1.3596813645       -2.1849217331
