  62
        -98.94083145
 C          0.4793683309        1.7967719406        0.6797718006
 C          1.3115669435        1.8650323542       -0.4616438275
 C          2.5926469157        1.1405680432       -0.3796470076
 C          2.8750803974        0.4220875843        0.7205614742
 C          4.1179008485       -0.3713183764        1.0405999170
 C          4.7721156007       -1.1688226601       -0.0938570968
 C          3.7892547140       -1.7900992169       -1.0966208718
 H          4.0129733210       -2.8528710582       -1.2001450334
 H          2.7688934088       -1.7028269397       -0.7209085981
 C          3.8683123698       -1.1562882449       -2.4867513556
 H          4.9176357856       -1.0045441310       -2.7492455873
 H          3.4456017133       -1.8515730117       -3.2156344588
 C          3.1192371012        0.1665665518       -2.6354365029
 H          2.0409207149       -0.0076314782       -2.5811396440
 H          3.3287016229        0.5647318076       -3.6312395484
 C          3.4719293207        1.2404260825       -1.5934794881
 H          4.5262768451        1.2032868058       -1.3306377771
 H          3.2592749259        2.2178906175       -2.0352041591
 H          5.4757674942       -0.5328841250       -0.6287974212
 H          5.3611346730       -1.9575488574        0.3773418988
 H          4.8557483191        0.3170813758        1.4638091486
 H          3.8200982974       -1.0512302306        1.8420485945
 O          2.0200445222        0.3505639488        1.7815780002
 C          0.8179759227        1.0341742447        1.7953291853
 O          0.1494714106        0.8821040555        2.8387993506
 H         -1.3653956806       -0.0650078462        0.3447711220
 C         -1.8809958932        0.5225377795       -0.4009888951
 C         -1.7412023798        1.9053288234       -0.3881349975
 C         -2.4112760811        2.6504980920       -1.3483522819
 C         -3.1927001322        2.0179750556       -2.3004519074
 C         -3.3387523593        0.6433567323       -2.3015623340
 C         -2.6781586258       -0.1121417126       -1.3380871418
 N         -2.7892695254       -1.5097262612       -1.3120669627
 S         -2.8317039335       -2.3281989822        0.1480926616
 O         -3.4919510811       -3.5779861717       -0.1682068176
 O         -3.4460872164       -1.5331142501        1.1850656606
 C         -1.1298033995       -2.6773721530        0.5313759010
 C         -0.4058451881       -3.4288850884       -0.3741633677
 C          0.9064044909       -3.7542936276       -0.0759558002
 C          1.4710816028       -3.3264063441        1.1171864850
 C          0.7319361212       -2.5734112719        2.0150094616
 C         -0.5831831442       -2.2460763095        1.7226294072
 H         -1.1791649760       -1.6497818889        2.3968224534
 H          1.1674799385       -2.2231938018        2.9374645478
 H          2.4937615795       -3.5801985689        1.3479134055
 H          1.4867743367       -4.3381461828       -0.7720418933
 H         -0.8836091726       -3.7489832649       -1.2851603516
 H         -3.4365439935       -1.9002633139       -1.9811283243
 H         -3.9551125209        0.1548889830       -3.0408665061
 H         -3.7021843104        2.6061627420       -3.0486858236
 H         -2.3169199510        3.7237124459       -1.3576336055
 C         -0.8633397069        2.5049466394        0.6845865283
 H         -1.3250999382        2.2759116566        1.6569777646
 C         -0.6858238982        4.0034890795        0.5688913704
 C         -1.7248482657        4.9280485987        1.1261200130
 C         -0.3965671229        4.7956332966        1.8069604364
 H          0.3016565341        5.6166018697        1.7430259530
 H         -0.3512095646        4.2561816938        2.7421995567
 H         -1.9385899615        5.8443318582        0.5967962104
 H         -2.5853483592        4.4834590657        1.6034947082
 H         -0.1746224823        4.2942764693       -0.3411323876
 O          1.0129199930        2.5119697827       -1.4986984914
