  62
        -98.94497364
 C         -1.0830984105       -1.3206323604        0.1856147408
 C         -1.3878372606       -0.0344918703        0.6952716206
 C         -2.4172214608        0.7191109294       -0.0326729695
 C         -2.9522453708        0.1903751491       -1.1482330694
 C         -4.0352518809        0.8300814088       -1.9671063194
 C         -5.4260183408        0.3804266987       -1.4980726792
 C         -5.6340984107        0.4955985289        0.0119381108
 H         -6.6593679207        0.1844565688        0.2239635109
 H         -4.9730259506       -0.2120619509        0.5174658608
 C         -5.3983503509        1.9023939291        0.5789757705
 H         -5.4340541211        2.6369118389       -0.2262115996
 H         -6.2088535009        2.1407624491        1.2709833805
 C         -4.0890811409        2.0615885894        1.3542803404
 H         -4.0084549507        1.2678904595        2.1012336305
 H         -4.1269629010        3.0130235595        1.8912502902
 C         -2.8071155509        2.0641106994        0.5115700503
 H         -2.8995692711        2.7925949193       -0.2959999198
 H         -1.9823271409        2.3685593397        1.1611853202
 H         -6.1762584309        0.9793756685       -2.0175815993
 H         -5.5676476107       -0.6642567614       -1.7845943490
 H         -3.9484738411        1.9121826689       -1.8938135696
 H         -3.8996457009        0.5320967287       -3.0080764994
 O         -2.5922887806       -1.0222174509       -1.6395074592
 C         -1.6578596905       -1.8130074607       -0.9865145191
 O         -1.4372379903       -2.9038001607       -1.5448754789
 O         -0.8272252606        0.4579677899        1.7109430804
 C         -0.0281124303       -2.1497941501        0.8994227808
 C          1.1937455397       -2.2121703601        0.0172285908
 C          1.6331510898       -3.3659543401       -0.6172946091
 C          2.7345157897       -3.3228842101       -1.4548009591
 C          3.4256125495       -2.1429025500       -1.6590755594
 C          2.9968543194       -0.9830268000       -1.0222547496
 C          1.8847204195       -1.0252943500       -0.1985232095
 H          1.5468512694       -0.1231940600        0.2914222704
 N          3.6611073992        0.2377660601       -1.2153215698
 S          3.8670773192        1.2737271003        0.0827781700
 O          4.9654255990        2.1311542104       -0.3142766502
 O          4.0557373293        0.5465763806        1.3168334301
 C          2.3849962590        2.2551650601        0.1493762499
 C          1.8836465390        2.6241050903        1.3811124799
 C          0.7766839389        3.4549333701        1.4333830598
 C          0.1929288188        3.8990278398        0.2578198798
 C          0.7020501388        3.5106043597       -0.9718280402
 C          1.8129642289        2.6852732998       -1.0311205101
 H          2.2366110089        2.3652184597       -1.9687944001
 H          0.2373057187        3.8494966595       -1.8838793702
 H         -0.6669040913        4.5489420197        0.3007191097
 H          0.3720727889        3.7447959302        2.3898201898
 H          2.3589257292        2.2447409805        2.2716779999
 H          4.4902226692        0.1870954001       -1.7894046799
 H          4.2878705495       -2.1144031600       -2.3080395994
 H          3.0629441298       -4.2237217701       -1.9509208590
 H          1.1054474999       -4.2933287202       -0.4694419889
 H          0.2378357797       -1.5732456799        1.7971745307
 C         -0.5556560101       -3.5016155501        1.3266914311
 C          0.1768280501       -4.2765926498        2.3798699712
 C         -1.1494909200       -3.6540487099        2.6936371012
 H         -2.0068858299       -4.2991644901        2.8140412313
 H         -1.1665877800       -2.7818204498        3.3308696010
 H          0.2312642603       -5.3505841098        2.2877714614
 H          1.0622655801       -3.8257909996        2.8027514711
 H         -1.0211004300       -4.0523840603        0.5181836712
