  62
        -98.94468124
 C         -2.5547274289       -0.8784997420        0.2878461212
 C         -2.5051087961        0.0029352473       -0.8195553715
 C         -2.8285161833        1.4095142454       -0.5390142482
 C         -3.1730661802        1.7792197149        0.7066543323
 C         -3.4712011685        3.1846366204        1.1388595053
 C         -2.2111760234        3.8872929354        1.6622504103
 C         -0.9998816252        3.7723502139        0.7357038462
 H         -0.1917985721        4.3542913315        1.1850933263
 H         -0.6570134730        2.7349454588        0.6999029958
 C         -1.2425030090        4.2657972115       -0.6972073705
 H         -2.1199823295        4.9137549192       -0.7264648651
 H         -0.3832611797        4.8635879135       -1.0087496602
 C         -1.3977884416        3.1471171594       -1.7294296688
 H         -0.5750219534        2.4350838483       -1.6121497420
 H         -1.3085205691        3.5876889035       -2.7267326531
 C         -2.7256573199        2.3788247809       -1.6823230674
 H         -3.5589646241        3.0845995273       -1.6698022491
 H         -2.7967916950        1.7790716075       -2.5945151251
 H         -2.4473894095        4.9412749162        1.8210948548
 H         -1.9449288623        3.4484529158        2.6264555142
 H         -3.8853684120        3.7374913252        0.2981075127
 H         -4.2125777434        3.1469108564        1.9390062143
 O         -3.2535075036        0.9002043729        1.7370538875
 C         -2.9161140173       -0.4291636034        1.5626582142
 O         -2.9900595832       -1.1135180683        2.6028891908
 H         -0.3599012586       -1.4086882210       -1.5843395092
 C          0.1297956035       -1.8341685034       -0.7210282363
 C         -0.6339187874       -2.3990459555        0.2906033042
 C          0.0204193499       -2.9170292314        1.4022571337
 C          1.4000094893       -2.8572034992        1.5013777481
 C          2.1525846349       -2.2532609439        0.5086908039
 C          1.5049020625       -1.7333618564       -0.6029371012
 N          2.2550534039       -1.0168944880       -1.5746084979
 S          2.4987457494        0.5776074246       -1.0666765766
 O          1.3772721358        1.0670668679       -0.2964268095
 O          2.8378819175        1.3273242195       -2.2568431992
 C          3.9342927693        0.4247052899       -0.0272489014
 C          3.8183684273        0.6087839892        1.3359530326
 C          4.9436491892        0.4513064447        2.1303495377
 C          6.1564470386        0.1128130402        1.5497305589
 C          6.2560096667       -0.0677871388        0.1778795571
 C          5.1351830392        0.0884808680       -0.6215292983
 H          5.1646025366       -0.0384346024       -1.6908338616
 H          7.2010548977       -0.3311776815       -0.2690230830
 H          7.0292219834       -0.0115805745        2.1710864512
 H          4.8676419532        0.5903433384        3.1968515640
 H          2.8527390145        0.8651006681        1.7423703578
 H          1.7785230216       -0.9841965393       -2.4672243991
 H          3.2246967431       -2.1755409144        0.5901375629
 H          1.8925364670       -3.2655013164        2.3705361129
 H         -0.5648455832       -3.3427101571        2.2045047880
 C         -2.1409280767       -2.3437793126        0.2176035193
 H         -2.5423850300       -2.8129050675        1.1255587336
 C         -2.6859359444       -3.0835441792       -0.9864122185
 C         -2.7534067234       -4.5797615064       -0.9441086778
 C         -4.0130582676       -3.7702618436       -0.8829153512
 H         -4.6651804127       -3.7597244167       -1.7432513947
 H         -4.5352366753       -3.7082110572        0.0608615663
 H         -2.5391020022       -5.1299281276       -1.8473580272
 H         -2.4226638902       -5.0695069411       -0.0407431055
 H         -2.4443757291       -2.6149236714       -1.9308452978
 O         -2.2107757658       -0.3400671789       -1.9978533744
