  62
        -98.93191428
 C          2.2125163636       -0.7253656423        0.0605593367
 C          3.5348793830       -1.2204182684        0.1769443818
 C          4.6200922596       -0.3508253506       -0.3090847278
 C          4.3129566436        0.8365939326       -0.8628117198
 C          5.1918797186        1.9104826069       -1.4695999981
 C          6.6993921593        1.9139500450       -1.2285757606
 C          7.1164008143        2.1933236171        0.2149586685
 H          6.8772040642        3.2334446074        0.4506558315
 H          8.2000535074        2.0770815362        0.2856535965
 C          6.4533832504        1.3174368171        1.2752651302
 H          5.3773430822        1.5047333368        1.2851449217
 H          6.8404775767        1.6235631050        2.2509994255
 C          6.6960361554       -0.1837666159        1.1298457276
 H          6.3096390963       -0.6680468138        2.0308569978
 H          7.7687511244       -0.3794123936        1.0795293109
 C          6.0176562444       -0.8498479685       -0.0800462276
 H          5.9298863544       -1.9200470318        0.1284268482
 H          6.6170021018       -0.7402872616       -0.9805020815
 H          7.1108048600        2.7135597182       -1.8505542809
 H          7.1391372965        0.9849968299       -1.5791783893
 H          4.7723686519        2.8628744454       -1.1297432046
 H          5.0135150274        1.8649914118       -2.5497006509
 O          3.0185589067        1.2453649632       -1.0094465503
 C          1.9420562678        0.4953547837       -0.5557328934
 O          0.8365755982        1.0259673323       -0.7737575124
 O          3.8011349313       -2.3528970879        0.6603843333
 C          1.0867144596       -1.5938369535        0.5908520436
 C         -0.0540137365       -1.6409628741       -0.3938390531
 C          0.1732419708       -2.1938590779       -1.6515732146
 C         -0.8341347772       -2.2370821179       -2.5949102392
 C         -2.0893531992       -1.7340065744       -2.3023581398
 C         -2.3312744300       -1.1917350670       -1.0455697019
 C         -1.3173290282       -1.1537895093       -0.0986804719
 H         -1.5204196218       -0.7035918897        0.8573738513
 N         -3.6195735138       -0.7296254533       -0.7189661203
 S         -3.8601169566        0.5787761858        0.3170492744
 O         -3.2661002607        1.7821814031       -0.2209904006
 O         -3.4704736754        0.2053853806        1.6529475323
 C         -5.6392234772        0.6874575925        0.2264166890
 C         -6.2248882875        1.6220728568       -0.6060833458
 C         -7.6077031726        1.6767821177       -0.6861924661
 C         -8.3774322685        0.7987930202        0.0617981302
 C         -7.7755668756       -0.1332834465        0.8942492616
 C         -6.3937346034       -0.1922076556        0.9793592441
 H         -5.8819011879       -0.8927090678        1.6182047087
 H         -8.3774431767       -0.8122120622        1.4765584190
 H         -9.4531699177        0.8433254919       -0.0022808067
 H         -8.0780471705        2.4027455021       -1.3297488999
 H         -5.5861947234        2.2903466683       -1.1614040155
 H         -4.2042875230       -0.6260770570       -1.5379326113
 H         -2.8749719545       -1.7587132100       -3.0425197121
 H         -0.6408155607       -2.6591321029       -3.5698888248
 H          1.1588031186       -2.5750883875       -1.8836618053
 H          1.5251519343       -2.6045314159        0.6518167504
 C          0.6416934504       -1.2281716327        1.9990142991
 C          1.5862262975       -0.6017037415        2.9792635801
 C          0.4413695115        0.1928001973        2.4297904313
 H         -0.3960114985        0.4183389293        3.0748011100
 H          0.6456587186        0.9679170315        1.7068000001
 H          1.5438457020       -0.9225742576        4.0091659229
 H          2.5823623325       -0.3646776279        2.6347521789
 H         -0.0555926963       -1.9556241280        2.4044403431
