  62
        -98.94491361
 C          1.9539606543        0.8541365523        0.0739319116
 C          2.2632546507       -0.1070157777        1.0635180859
 C          2.3818484826       -1.4941456370        0.5982377605
 C          2.1586880965       -1.7725000644       -0.6993642641
 C          2.2809017615       -3.1359161786       -1.3155464935
 C          3.6989745596       -3.3827182827       -1.8497546019
 C          4.8029825915       -3.0459590364       -0.8474535581
 H          5.7570118335       -3.2846747181       -1.3221678456
 H          4.7960217380       -1.9698774339       -0.6599391792
 C          4.6953777779       -3.7929403974        0.4891808909
 H          4.0410129068       -4.6581970537        0.3782876563
 H          5.6844290189       -4.1658089075        0.7630341521
 C          4.2046396684       -2.9349555249        1.6567579350
 H          4.3703337085       -3.4922545266        2.5825043047
 H          4.7987671090       -2.0195545848        1.7142564966
 C          2.7218674480       -2.5427289248        1.6200165685
 H          2.1057388179       -3.4330782082        1.4758026608
 H          2.4666303503       -2.1061863382        2.5903851262
 H          3.7785917796       -4.4307157440       -2.1440866179
 H          3.8441487248       -2.7664274873       -2.7398687131
 H          2.0237158517       -3.8872451791       -0.5711354847
 H          1.5700008542       -3.2002021801       -2.1412690916
 O          1.8436045343       -0.8252445965       -1.6190438530
 C          1.7223845861        0.5066427244       -1.2571333714
 O          1.4256345934        1.2709658648       -2.1958897248
 O          2.4313488533        0.1832229637        2.2805744077
 C          1.7720782868        2.3040630651        0.4833912917
 C          0.3694261010        2.7501809649        0.1490271890
 C          0.0713386481        3.9837956269       -0.4149867301
 C         -1.2366364931        4.3110100478       -0.7292441205
 C         -2.2665182354        3.4178253496       -0.5010625293
 C         -1.9805726466        2.1884905979        0.0833530119
 C         -0.6753195361        1.8757125003        0.4210952478
 H         -0.4661147347        0.9161220631        0.8728214538
 N         -3.0036448869        1.2619943765        0.3559789356
 S         -2.6420923770       -0.3829086582        0.2214375814
 O         -2.0167892019       -0.8222654310        1.4448712036
 O         -1.9195057823       -0.6473590924       -1.0026236703
 C         -4.2924337970       -1.0534713273        0.1262547155
 C         -4.8221155031       -1.3875291747       -1.1056117161
 C         -6.1187202837       -1.8741206960       -1.1682768526
 C         -6.8604072891       -2.0138380485       -0.0049187003
 C         -6.3148786602       -1.6748775579        1.2245953249
 C         -5.0188408872       -1.1892923210        1.2944302409
 H         -4.5481285988       -0.9211028854        2.2258019307
 H         -6.8933657794       -1.7873677214        2.1272288260
 H         -7.8691012891       -2.3919788274       -0.0567339815
 H         -6.5436613421       -2.1413267015       -2.1223486268
 H         -4.2041456305       -1.2678766454       -1.9812862903
 H         -3.8669246821        1.4862850018       -0.1209565813
 H         -3.2819397384        3.6653227037       -0.7706908693
 H         -1.4539696521        5.2695694486       -1.1755535461
 H          0.8644466198        4.6834918590       -0.6219833802
 H          1.8873493475        2.3169696581        1.5781932160
 C          2.8473947140        3.1745582098       -0.1327767996
 C          3.3269679554        4.4047716160        0.5765507051
 C          4.2077202397        3.1955107774        0.4953657918
 H          5.0729064466        3.2262234643       -0.1496915933
 H          4.3484150998        2.6017287658        1.3869148039
 H          3.5919425647        5.2692480177       -0.0132510641
 H          2.8772072469        4.6390493263        1.5294917325
 H          2.7948897742        3.1906472775       -1.2157583522
