  62
        -98.93594635
 C         -1.9833719929       -1.5344772387        0.0968550589
 C         -2.2697424153       -0.5686197650       -0.8968450628
 C         -3.6046776184        0.0606484332       -0.8387604206
 C         -4.4575063630       -0.2666062571        0.1485180332
 C         -5.8731354900        0.1883733371        0.4347639795
 C         -6.4386868589        1.4467353138       -0.2193829785
 C         -5.7641634392        2.7503955012        0.2051532785
 H         -6.1962944008        3.5636280411       -0.3822854164
 H         -5.9981206383        2.9387002238        1.2560086713
 C         -4.2448870920        2.7857851478        0.0575066354
 H         -3.9016238225        3.7753360464        0.3720546121
 H         -3.7924659322        2.0602332749        0.7371422277
 C         -3.7199788183        2.5386883856       -1.3558316188
 H         -2.6507467862        2.7677852944       -1.3525992531
 H         -4.2046554636        3.2252166483       -2.0526874967
 C         -3.8851681658        1.1021120031       -1.8838640390
 H         -4.8703303564        0.9507570177       -2.3184164378
 H         -3.1486625103        0.9489057975       -2.6779716582
 H         -6.4262028236        1.3495256335       -1.3010126354
 H         -7.4884664025        1.5064885647        0.0806517316
 H         -6.5179727732       -0.6571383144        0.1702707245
 H         -5.9341733987        0.2931079697        1.5226537170
 O         -4.1307452561       -1.1924685870        1.0968865167
 C         -2.9108632921       -1.8415144258        1.0953869507
 O         -2.7710693625       -2.6650278192        2.0216376231
 H          0.0882645734        0.2572670848       -0.2618560851
 C          0.6562818698       -0.2002750123        0.5343481998
 C          0.3920435039       -1.5163438128        0.8885472788
 C          1.1433365121       -2.0940622232        1.9050933477
 C          2.1289417675       -1.3690317400        2.5529003139
 C          2.3859484728       -0.0565291357        2.2001924221
 C          1.6410938200        0.5293358863        1.1843873535
 N          1.8971139921        1.8617427840        0.8095116798
 S          3.4881294716        2.2640096076        0.4727609991
 O          4.2083760499        2.4403781330        1.7090959824
 O          3.4174706347        3.4208200258       -0.3907432478
 C          4.1309730630        0.8552435456       -0.4109870892
 C          3.6574148265        0.6211537792       -1.6869309687
 C          4.0957283526       -0.5022632645       -2.3688881097
 C          4.9887482288       -1.3724601394       -1.7624630722
 C          5.4564137195       -1.1220394911       -0.4819028802
 C          5.0243534409        0.0019418763        0.2039768027
 H          5.3650551776        0.2356400939        1.1991406537
 H          6.1520555017       -1.7997679569       -0.0140567311
 H          5.3195542210       -2.2510981778       -2.2929249928
 H          3.7316089078       -0.6991596761       -3.3643291285
 H          2.9624994252        1.3182653745       -2.1281793981
 H          1.2862815660        2.1909403080        0.0757438943
 H          3.1442607619        0.5259571226        2.6977626471
 H          2.7013355453       -1.8292891354        3.3435785197
 H          0.9405555875       -3.1142901300        2.1962577197
 C         -0.6730922405       -2.3028394770        0.1685918511
 H         -0.8985898270       -3.1892717744        0.7818629633
 C         -0.2131237397       -2.8059231905       -1.1946046590
 C          0.9619049742       -2.2508926646       -1.9357640071
 C          1.0482456291       -3.6096399013       -1.3131480588
 H          1.0486637827       -4.4782195230       -1.9537938197
 H          1.6552919999       -3.7113512786       -0.4263499961
 H          0.8792884421       -2.1715382376       -3.0087844865
 H          1.5214771778       -1.4477192829       -1.4829749515
 H         -1.0530886227       -3.1281774645       -1.8022813074
 O         -1.4674133445       -0.2270187834       -1.8043310742
