  62
        -98.93370219
 C         -1.9375425915       -0.7176096150        0.7344485294
 C         -1.9656267880       -0.1138109014       -0.5463644978
 C         -2.0107683555        1.3550922490       -0.5587592280
 C         -1.9667956391        2.0278923943        0.6044987152
 C         -2.0346534196        3.5217017469        0.7361418037
 C         -3.4836660017        4.0049471791        0.8915065396
 C         -4.4430959306        3.4225369390       -0.1462806966
 H         -4.5260123855        2.3450021001        0.0126505156
 H         -5.4282183198        3.8537203542        0.0439100389
 C         -4.0395782163        3.6891908244       -1.6030028248
 H         -4.9238057476        4.0078127164       -2.1588376795
 H         -3.3182019528        4.5059318239       -1.6434070308
 C         -3.4675140132        2.4731900656       -2.3339298911
 H         -3.4183048648        2.7091956881       -3.4001372743
 H         -4.1442317594        1.6232680273       -2.2168817483
 C         -2.0640020696        2.0324868085       -1.8989250862
 H         -1.3818269971        2.8849467392       -1.9224774529
 H         -1.7061589807        1.2902779332       -2.6185400995
 H         -3.4921792622        5.0945543244        0.8278735439
 H         -3.8376908972        3.7190041944        1.8846812841
 H         -1.4639774871        3.8124114196        1.6200639337
 H         -1.5782148135        3.9756444812       -0.1414554733
 O         -1.9057093524        1.4136646269        1.8152721528
 C         -1.8849958054        0.0326083983        1.9071789570
 O         -1.8263819905       -0.4047814766        3.0771761409
 O         -1.9550952268       -0.7612261862       -1.6242738221
 C         -1.8428973934       -2.2350145732        0.8691688449
 C         -0.6798226392       -2.6787238231        0.0116934571
 C         -0.6707207804       -3.5927667718       -1.0328713819
 C          0.4882286483       -3.8223852298       -1.7581507758
 C          1.6555183268       -3.1380508496       -1.4841233731
 C          1.6657651002       -2.2299992187       -0.4308430444
 C          0.5200417269       -2.0378406244        0.3175551241
 H          0.5480668900       -1.3292114222        1.1346231732
 N          2.8259844776       -1.5048211516       -0.1022943259
 S          2.6168649685        0.0821512718        0.4440288665
 O          2.4123951985        0.0528635423        1.8720804232
 O          1.6105497246        0.7618712698       -0.3395214334
 C          4.2322099363        0.7534362329        0.0927118452
 C          4.4181136476        1.5159154966       -1.0446932018
 C          5.6846548850        2.0052408587       -1.3244097200
 C          6.7385568024        1.7216685098       -0.4689284828
 C          6.5364859487        0.9550673451        0.6693632805
 C          5.2724659894        0.4645814244        0.9559700045
 H          5.0636744303       -0.1263260075        1.8324760351
 H          7.3572694447        0.7389829029        1.3339317034
 H          7.7230077445        2.1030948871       -0.6891461787
 H          5.8431501555        2.6044333085       -2.2064785170
 H          3.5663246658        1.7146122128       -1.6754376703
 H          3.5333052568       -1.5556322311       -0.8233925731
 H          2.5443378120       -3.2963511063       -2.0755548453
 H          0.4678517093       -4.5324239244       -2.5712173735
 H         -1.5621634269       -4.1177337094       -1.3230418611
 H         -1.5422691284       -2.4105253510        1.9166540912
 C         -3.2352239061       -2.8306820067        0.7333435081
 C         -3.9113591379       -3.1724115906       -0.5569891407
 C         -3.5451783858       -4.2613216113        0.4088633425
 H         -4.3455824136       -4.7331141741        0.9598425062
 H         -2.7312059243       -4.9277889688        0.1769025339
 H         -4.9552481996       -2.9116410652       -0.6579956933
 H         -3.3503536418       -3.0415176757       -1.4675951175
 H         -3.8744242893       -2.3761533755        1.4885550955
