  62
        -98.94717548
 C          1.6118465895        1.5679526183       -0.2472158039
 C          2.7718490804        1.2279101560        0.4956689705
 C          3.5535252092        0.0958567197       -0.0114626450
 C          3.1603657743       -0.5379499477       -1.1309795039
 C          3.8662927066       -1.6925310838       -1.7893424513
 C          3.5179316969       -3.0659661307       -1.1991024693
 C          4.0890064104       -3.3418481910        0.1921308131
 H          3.9423272136       -4.4049185290        0.3934548208
 H          5.1641268414       -3.1597330580        0.1844155328
 C          3.4355333833       -2.5288909045        1.3188567620
 H          2.4857801859       -2.1155303870        0.9714638028
 H          3.2097357848       -3.1875151877        2.1603065381
 C          4.3010081279       -1.3895127339        1.8574901743
 H          5.1986624455       -1.7992741168        2.3258913344
 H          3.7318167243       -0.8605070799        2.6260481783
 C          4.7280299722       -0.3664192781        0.7962935305
 H          5.1460489150        0.5046195562        1.3067322077
 H          5.4938980693       -0.7922768215        0.1483939357
 H          2.4315798356       -3.1712240009       -1.1735564186
 H          3.9080861243       -3.8218214791       -1.8847136088
 H          3.5658233178       -1.6834530401       -2.8395407365
 H          4.9443132408       -1.5370227319       -1.7374472140
 O          2.0525684401       -0.1696504035       -1.8261667089
 C          1.2365632977        0.8675849599       -1.3933263769
 O          0.2404120044        1.0546907536       -2.1182200712
 O          3.1355296256        1.8440706078        1.5315699727
 C          0.7325467288        2.6873163053        0.2885777924
 C         -0.5146735898        2.0387238598        0.8347601157
 C         -0.5047886712        1.5102841193        2.1228629971
 C         -1.5946142347        0.8128660884        2.6099003639
 C         -2.7077246639        0.6051759304        1.8136111840
 C         -2.7193138664        1.1171530303        0.5231808876
 C         -1.6405515993        1.8498021257        0.0481923669
 H         -1.6613831374        2.2307701413       -0.9602540720
 N         -3.8185193680        0.8489044195       -0.3150027454
 S         -4.2940507654       -0.7559290963       -0.3918662994
 O         -4.8275820928       -0.9402066964       -1.7236266730
 O         -5.2120237953       -1.0308212403        0.6868550617
 C         -2.8105424248       -1.7261947191       -0.1661555451
 C         -1.7320479698       -1.5001336018       -0.9975954079
 C         -0.5793440835       -2.2467775054       -0.8156627711
 C         -0.5217212426       -3.2022040201        0.1866389300
 C         -1.6154556502       -3.4207700717        1.0099818177
 C         -2.7705015640       -2.6764578979        0.8345471293
 H         -3.6411078992       -2.8089439175        1.4562105857
 H         -1.5685366587       -4.1649238033        1.7885589955
 H          0.3800431137       -3.7780906334        0.3280590177
 H          0.2677779563       -2.0597560258       -1.4575590330
 H         -1.7774552491       -0.7444012059       -1.7659761019
 H         -3.7096609785        1.2283939219       -1.2449390806
 H         -3.5604557515        0.0473722865        2.1657978934
 H         -1.5746144358        0.4155657865        3.6131319414
 H          0.3786459755        1.6395189645        2.7320087355
 H          1.2918886001        3.1209837890        1.1278763621
 C          0.4699649284        3.7714760539       -0.7341966831
 C         -0.1097158756        5.0769091838       -0.2802648845
 C          1.3187168661        5.0060322173       -0.7270623052
 H          1.5867999386        5.4515688891       -1.6733772501
 H          2.0929344882        5.0770629678        0.0227126482
 H         -0.8246930936        5.5745091977       -0.9175567348
 H         -0.3060219479        5.1935426011        0.7748249039
 H          0.1651952342        3.3918547422       -1.7014860747
