  62
        -98.94148235
 C         -2.5240213411       -1.0106960403       -0.4674333106
 C         -3.3986555352       -0.3778407028        0.4561919718
 C         -3.8240565510        0.9852326281        0.1263067182
 C         -3.4005443783        1.5546856577       -1.0162036197
 C         -3.7546102482        2.9317883783       -1.5071531505
 C         -2.8766105686        4.0435980174       -0.9164297906
 C         -3.1499745777        4.3755121537        0.5510888054
 H         -2.6298916882        5.3101815498        0.7697396414
 H         -4.2166379890        4.5546759562        0.6898802665
 C         -2.6727715212        3.3046645727        1.5425036636
 H         -1.9525211547        2.6448691518        1.0508228286
 H         -2.1440084430        3.7840696300        2.3697697807
 C         -3.7914475068        2.4582041483        2.1511914551
 H         -4.4356808029        3.0919258928        2.7646201340
 H         -3.3344806790        1.7092730854        2.8032635029
 C         -4.6634366642        1.7246976508        1.1236510825
 H         -5.2737293953        0.9901880760        1.6545688395
 H         -5.3224881033        2.4297460159        0.6177275231
 H         -3.0486616450        4.9450946260       -1.5090910588
 H         -1.8270953990        3.7620741966       -1.0356032174
 H         -4.8029284808        3.1404603346       -1.2921738694
 H         -3.6151104484        2.9214615591       -2.5902550485
 O         -2.5868429983        0.9089762144       -1.8898252444
 C         -2.0968206890       -0.3624047125       -1.6261484618
 O         -1.3141747746       -0.7763336500       -2.5069351731
 O         -3.8091674869       -0.9352305401        1.5087150355
 C         -2.0388755997       -2.4016812161       -0.0898274888
 C         -0.6974186454       -2.3039119377        0.5978219349
 C         -0.5316419888       -2.7043454910        1.9180772900
 C          0.6902216806       -2.5573369739        2.5524601010
 C          1.7680074642       -2.0005671286        1.8873765747
 C          1.6090446386       -1.5939079642        0.5699495188
 C          0.3907863940       -1.7593369251       -0.0694472252
 H          0.2757792446       -1.4299203290       -1.0921015657
 N          2.6982055729       -0.9895739740       -0.1084874275
 S          3.0181316139        0.6032932229        0.3686814634
 O          2.9145389787        0.6884305169        1.8028325468
 O          2.1933219435        1.5208287783       -0.3921110170
 C          4.7211898319        0.7639330341       -0.1292863591
 C          5.0270253314        1.3645737110       -1.3345621762
 C          6.3544385490        1.4440574167       -1.7261698739
 C          7.3467091440        0.9202901267       -0.9116814967
 C          7.0234022308        0.3192821524        0.2958766365
 C          5.6985670183        0.2378227084        0.6929598552
 H          5.4006206609       -0.2127126048        1.6250496668
 H          7.7979792797       -0.0853267392        0.9271488576
 H          8.3785049941        0.9826936648       -1.2195100878
 H          6.6080077936        1.9127510914       -2.6634864054
 H          4.2234841718        1.7642953436       -1.9324309696
 H          2.5258814706       -0.9647193866       -1.1064107007
 H          2.7157273295       -1.8551470722        2.3783141362
 H          0.8013223378       -2.8716401475        3.5791199058
 H         -1.3760567550       -3.1118426748        2.4547737516
 H         -2.7658157570       -2.7698333379        0.6467086909
 C         -1.9925527173       -3.3771030222       -1.2483946605
 C         -2.0235699245       -4.8470629350       -0.9600385395
 C         -3.2129275985       -4.1795544319       -1.5811115619
 H         -3.4327446680       -4.3723317803       -2.6203264068
 H         -4.0911049175       -4.0292390285       -0.9702348643
 H         -1.4240449485       -5.5031360899       -1.5719776256
 H         -2.0963766023       -5.1523606203        0.0727115077
 H         -1.3822951950       -3.0374851583       -2.0747451862
