  62
        -98.93712096
 C          2.6270377877        0.0399017180       -0.1893415197
 C          2.1248306208        0.8424822935        0.8620623175
 C          1.7131147793        2.2169837972        0.5070582277
 C          1.7838023028        2.6265156728       -0.7717692514
 C          1.4525119818        3.9526210753       -1.4259170205
 C          0.7218974711        5.0449535897       -0.6510352181
 C         -0.7433150023        4.7344819053       -0.3424200305
 H         -1.1237947446        5.5055523734        0.3309854355
 H         -1.3116861600        4.7941404042       -1.2739428192
 C         -1.0183321645        3.3630809851        0.2704420079
 H         -0.7119123070        2.5714008174       -0.4173119919
 H         -2.1004435393        3.2600924353        0.3979127885
 C         -0.3745503743        3.1055339092        1.6308773557
 H         -0.6921857489        3.8715635748        2.3423579572
 H         -0.7467326640        2.1392377070        1.9837531338
 C          1.1608683568        3.0415532548        1.6347034444
 H          1.5979502454        4.0375416267        1.6357199034
 H          1.4711560387        2.5435298876        2.5583856062
 H          0.7426432643        5.9399613315       -1.2788604025
 H          1.2648982210        5.2856887121        0.2581906739
 H          2.4102595602        4.3547015544       -1.7747413293
 H          0.8775615915        3.7043276865       -2.3239796588
 O          2.2668708909        1.8122976719       -1.7568429338
 C          2.6718599135        0.5186538041       -1.4999145190
 O          3.0670402973       -0.1015650753       -2.5095734098
 H          0.4626538506       -1.0891328118        0.7872179791
 C          0.5864998320       -1.9649682468        0.1689842367
 C          1.8390371218       -2.3059492681       -0.3172212997
 C          1.9635738545       -3.4553502400       -1.0890697020
 C          0.8544163437       -4.2272459427       -1.3852853855
 C         -0.4024106591       -3.8507500907       -0.9470477292
 C         -0.5350206193       -2.7077136019       -0.1670724320
 N         -1.7904146022       -2.2742389134        0.2885081640
 S         -2.0471342630       -0.5991274571        0.3235921280
 O         -1.3923083821        0.0247530294       -0.8031883487
 O         -1.7076660308       -0.1127081507        1.6357220711
 C         -3.8184346084       -0.5401578674        0.1175683731
 C         -4.3466303085       -0.3062083305       -1.1376863803
 C         -5.7238290330       -0.2982148329       -1.2952002799
 C         -6.5448272073       -0.5266899576       -0.2011488873
 C         -6.0001622628       -0.7585473191        1.0532998419
 C         -4.6241438049       -0.7661117239        1.2178239152
 H         -4.1545006803       -0.9315005968        2.1734464256
 H         -6.6413778432       -0.9323355546        1.9022396057
 H         -7.6159616887       -0.5210732334       -0.3267535354
 H         -6.1493801763       -0.1141102777       -2.2684562121
 H         -3.6677268477       -0.1262558578       -1.9560030459
 H         -2.5602663308       -2.7654610268       -0.1454721204
 H         -1.2739346965       -4.4313224149       -1.2088962622
 H          0.9647330971       -5.1161128665       -1.9876433988
 H          2.9332540444       -3.7286212085       -1.4774920837
 C          3.0310062554       -1.4182813867       -0.0381723715
 H          3.7732892115       -1.6088834232       -0.8271321531
 C          3.6536327531       -1.7715842734        1.2972900396
 C          4.6104423589       -2.9218206344        1.3771480224
 C          5.1127974941       -1.5171395485        1.5197526257
 H          5.4299325049       -1.1725690634        2.4921983920
 H          5.6737252811       -1.0898491553        0.7010752253
 H          4.5836677376       -3.5498585348        2.2541571189
 H          4.8414468377       -3.4493392353        0.4643135991
 H          2.9879916234       -1.6090757163        2.1346376735
 O          2.0228515319        0.4625366900        2.0592880703
