  62
        -98.94243825
 C         -1.0839631840       -1.4470515706       -0.0259257588
 C         -1.7975938277       -0.7916001046        1.0029021472
 C         -2.5195668637        0.4424805348        0.6354075485
 C         -2.4805635374        0.8576670732       -0.6443991548
 C         -3.1739273794        2.0455284872       -1.2559148088
 C         -4.6798545238        1.8106040148       -1.4637839188
 C         -5.3927995322        1.1181480161       -0.3050609121
 H         -6.4139265647        0.8976797720       -0.6270054876
 H         -4.9045031098        0.1633598167       -0.1012661493
 C         -5.4768270977        1.9291377148        0.9857009503
 H         -6.0189099736        2.8573932004        0.7913852604
 H         -6.0629454216        1.3454487750        1.7001652347
 C         -4.1403024448        2.2799523147        1.6421360394
 H         -4.3575071421        2.6542451751        2.6470858804
 H         -3.6452034032        3.0904137764        1.1137222444
 C         -3.1843310926        1.1036759826        1.8178307779
 H         -3.6976293349        0.3022813111        2.3619357896
 H         -2.3622629218        1.4183052348        2.4748055083
 H         -4.8028802336        1.1827737615       -2.3493966127
 H         -5.1548211457        2.7725071641       -1.6629974646
 H         -2.9955153512        2.9297214220       -0.6508214203
 H         -2.7129674804        2.2138670676       -2.2314937501
 O         -1.7950912851        0.1804539534       -1.6089711622
 C         -1.0530867901       -0.9551352055       -1.3293620719
 O         -0.4338561643       -1.4163190517       -2.3053492003
 O         -1.8373102620       -1.2194125332        2.1893412959
 C         -0.2669759821       -2.6804473133        0.3148426480
 C          1.1976696242       -2.3604736372        0.1380733272
 C          2.0527590653       -3.0819574419       -0.6837429610
 C          3.3812500120       -2.7119211332       -0.8056014986
 C          3.8800405562       -1.6208071671       -0.1189452089
 C          3.0347044281       -0.8972486119        0.7160057292
 C          1.7080309688       -1.2751027973        0.8419849573
 H          1.0600489629       -0.7127574314        1.4990622111
 N          3.5202369622        0.2006788572        1.4496837430
 S          2.6765714292        1.6429444164        1.4677811703
 O          3.6094631335        2.5940396325        2.0321856267
 O          1.4256098706        1.4880156171        2.1642441985
 C          2.3952637187        2.0239414043       -0.2494656643
 C          3.4038626513        2.6374740056       -0.9670506967
 C          3.2138252096        2.8766286869       -2.3180275135
 C          2.0298851266        2.4888221173       -2.9277263977
 C          1.0273837118        1.8743250690       -2.1937350547
 C          1.2096865369        1.6399413633       -0.8402837083
 H          0.4502960699        1.1661751630       -0.2371637182
 H          0.1103627474        1.5568997829       -2.6646290052
 H          1.8833549175        2.6660784620       -3.9814752688
 H          3.9881119259        3.3589151428       -2.8925543675
 H          4.3047611173        2.9288839860       -0.4517275723
 H          4.5062556528        0.3775259065        1.3187725183
 H          4.9150450582       -1.3316705654       -0.2193682113
 H          4.0353176315       -3.2781913856       -1.4508878138
 H          1.6791906305       -3.9298038840       -1.2332521622
 H         -0.4458279870       -2.8603612962        1.3854520233
 C         -0.7365740942       -3.8865226543       -0.4689526157
 C         -0.4879347112       -5.2659818582        0.0615630135
 C         -1.8753355381       -4.7001874216        0.0659011330
 H         -2.5982562675       -5.0962377159       -0.6313889144
 H         -2.3024764574       -4.3965901720        1.0108012356
 H         -0.2597713836       -6.0552909781       -0.6384649674
 H          0.0266939758       -5.3516766990        1.0066909640
 H         -0.6944964355       -3.7330593554       -1.5409625377
