  62
        -98.94391802
 C          1.6198826028        1.4122330677       -0.2254872145
 C          2.7426351162        0.8428797689        0.4115452864
 C          3.2323126123       -0.4432021193       -0.1200135097
 C          2.5924679663       -0.9959800707       -1.1676782494
 C          2.8690038599       -2.3142572687       -1.8404676521
 C          2.3459568955       -3.5038360391       -1.0215864785
 C          2.6859725574       -3.4543102789        0.4652413230
 H          2.1956751376       -4.3068599449        0.9438161930
 H          2.2411730751       -2.5553039788        0.8972684633
 C          4.1744287001       -3.5179786886        0.8018507663
 H          4.5943289221       -4.4361490272        0.3848101664
 H          4.2544062761       -3.5810580332        1.8901702702
 C          5.0262781442       -2.3354595589        0.3329406230
 H          5.2643843168       -2.4155353921       -0.7243463993
 H          5.9777618457       -2.3885254055        0.8702155236
 C          4.4323540901       -0.9634977613        0.6343569002
 H          5.2151644289       -0.2067637250        0.5003246481
 H          4.1646123254       -0.9150194432        1.6963681678
 H          2.7350164625       -4.4249820126       -1.4598342030
 H          1.2557198439       -3.5175656652       -1.1026380282
 H          3.9300706232       -2.4211907183       -2.0447635421
 H          2.3431078618       -2.2946053466       -2.7977202405
 O          1.5189193689       -0.4023526000       -1.7606508881
 C          0.9880948631        0.7824194200       -1.2955974213
 O         -0.0212157079        1.1766213611       -1.9135514949
 O          3.3144201681        1.3796091532        1.4016094200
 C          1.0224982099        2.6976191191        0.3162354025
 C         -0.4244594252        2.4684385358        0.6788372280
 C         -1.4366222255        3.3833794460        0.4170194249
 C         -2.7498068202        3.0913141784        0.7450534406
 C         -3.0852142384        1.8764964231        1.3144056400
 C         -2.0775698208        0.9600593365        1.5909395697
 C         -0.7603964211        1.2743430240        1.3041183799
 H          0.0091528185        0.5504903536        1.5297884167
 N         -2.3571308577       -0.3100281971        2.1406418763
 S         -2.0339447818       -1.6255569561        1.1478562765
 O         -2.4534080185       -2.7831280300        1.9095163833
 O         -0.6579748578       -1.6019458657        0.7286064663
 C         -3.1414220910       -1.3975124454       -0.2322860997
 C         -2.8004989424       -0.5202285904       -1.2419969948
 C         -3.7150690822       -0.2918978630       -2.2597774173
 C         -4.9429873372       -0.9346683839       -2.2500978429
 C         -5.2688740679       -1.8131711556       -1.2272944121
 C         -4.3633346507       -2.0433792130       -0.2049934754
 H         -4.5696697751       -2.7191230680        0.6094685807
 H         -6.2232258551       -2.3146707101       -1.2221569468
 H         -5.6483735259       -0.7499650106       -3.0449071936
 H         -3.4526261002        0.3924704481       -3.0506074855
 H         -1.8376218907       -0.0323137479       -1.2375099361
 H         -3.2992208469       -0.3971602531        2.4984490865
 H         -4.1130651539        1.6355658540        1.5407267087
 H         -3.5252189372        3.8115654465        0.5335850939
 H         -1.1981040539        4.3236113020       -0.0527727817
 H          1.5836111151        2.9194647379        1.2366859718
 C          1.2236729663        3.8340270357       -0.6649377765
 C          1.3833055104        5.2413177714       -0.1740007495
 C          2.5627845975        4.5031600592       -0.7295402045
 H          2.9484422110        4.7933775857       -1.6952522926
 H          3.3213996415        4.1550939535       -0.0436484336
 H          0.9615198214        6.0433597805       -0.7607639623
 H          1.3474308808        5.4061614559        0.8922489081
 H          0.6997091324        3.6709411813       -1.6002264737
