  62
        -98.94416137
 C          1.8192648999        1.1199432898       -0.0918651806
 C          2.2712063800       -0.0077450804       -0.8184095602
 C          3.7305496200       -0.1654308703       -0.9095523003
 C          4.5315334599        0.7470342500       -0.3297557807
 C          6.0302904000        0.6759080902       -0.2980773808
 C          6.5246312502       -0.0641821992        0.9528401694
 C          5.8247019903       -1.4011372092        1.1971394301
 H          6.2740722104       -1.8454826788        2.0878520202
 H          4.7723241503       -1.2173779492        1.4254849401
 C          5.9214627003       -2.3912735697        0.0281235905
 H          6.7308219902       -2.0970833999       -0.6410845497
 H          6.1707922104       -3.3779857395        0.4240892309
 C          4.6306828102       -2.5484874702       -0.7779424693
 H          3.7964672703       -2.7519934300       -0.1014220892
 H          4.7409193703       -3.4184413304       -1.4310189790
 C          4.2494640700       -1.3564345306       -1.6647687198
 H          5.0987078799       -1.0770817908       -2.2918311300
 H          3.4309780000       -1.6765433810       -2.3165360696
 H          6.3549505302        0.5747664311        1.8224700292
 H          7.5995072202       -0.2268205792        0.8552716694
 H          6.4229250299        1.6940155602       -0.2860119913
 H          6.3836394399        0.1713544098       -1.1951793507
 O          4.0589137199        1.8256321602        0.3455879389
 C          2.6972130099        2.0336600302        0.4913121089
 O          2.3986218099        3.0484921804        1.1525146685
 O          1.5013560100       -0.8414981308       -1.3633191398
 C          0.3295721799        1.3714771397        0.0701142794
 C         -0.3120689499        0.1806410700        0.7376020800
 C          0.1912093303       -0.2340772195        1.9692451801
 C         -0.3376412296       -1.3330418692        2.6158753806
 C         -1.3876076595       -2.0376637096        2.0527745710
 C         -1.9000345497       -1.6301471502        0.8272567809
 C         -1.3702644499       -0.5193360704        0.1813368304
 H         -1.7727856000       -0.2383583408       -0.7770939297
 N         -2.9535894497       -2.3357323205        0.2361898413
 S         -4.0506729099       -1.6124933711       -0.7819666389
 O         -5.1954132098       -2.4989371112       -0.7541519384
 O         -3.4744746400       -1.3792753316       -2.0823522990
 C         -4.4831404099       -0.0541348308       -0.0256394795
 C         -4.6949176998        0.0054643898        1.3375265105
 C         -5.0533075499        1.2165476100        1.9071992800
 C         -5.2007874001        2.3407912496        1.1093886295
 C         -4.9934872802        2.2632956291       -0.2586593705
 C         -4.6312768401        1.0551050288       -0.8325237700
 H         -4.4542194002        0.9497691184       -1.8908400499
 H         -5.1088621804        3.1375075688       -0.8791885508
 H         -5.4787674601        3.2824183498        1.5559638092
 H         -5.2158313298        1.2797546404        2.9710986100
 H         -4.5785310697       -0.8819893400        1.9375068609
 H         -3.3563540396       -3.0760813203        0.7895298117
 H         -1.7977044494       -2.9032041394        2.5503295415
 H          0.0679437306       -1.6454630388        3.5663808407
 H          1.0142531303        0.3162804508        2.4052815998
 H          0.2400803499        2.2325605100        0.7481474490
 C         -0.2848120002        1.7390790491       -1.2632466707
 C         -1.5092830003        2.6002115490       -1.3147288609
 C         -0.1830204904        3.1578083989       -1.7339899513
 H         -0.0069059506        3.3418915885       -2.7832271814
 H          0.3096397096        3.8614968992       -1.0786933617
 H         -2.2433578204        2.3993386086       -2.0797999608
 H         -1.9283189803        2.9310498593       -0.3765545810
 H         -0.1773407402        0.9572170788       -2.0067841204
