  62
        -98.94295495
 C         -1.9523759956       -1.0570753874        0.3880955550
 C         -2.5515954566       -0.0167379483        1.1457495099
 C         -3.9763027079        0.2375625977        0.8986138309
 C         -4.6315097871       -0.5233811639        0.0034392673
 C         -6.0700412378       -0.3472923524       -0.3858673191
 C         -6.2079119712        0.5948238489       -1.5898653482
 C         -5.4307423109        1.9029611170       -1.4422396345
 H         -4.3603971366        1.6837581904       -1.4318070486
 H         -5.6268675763        2.5007447134       -2.3349981191
 C         -5.7918551455        2.7178820965       -0.1923873984
 H         -5.9046597432        3.7658763038       -0.4779618066
 H         -6.7521983724        2.3849061910        0.2029476862
 C         -4.7430687722        2.6712220271        0.9206306783
 H         -3.7598854504        2.9147905923        0.5092537157
 H         -4.9902987242        3.4441218445        1.6534741240
 C         -4.6319329562        1.3421398223        1.6784573568
 H         -5.6198095420        1.0339729804        2.0273383007
 H         -3.9958591046        1.5106412054        2.5525789540
 H         -5.8400511652        0.0771081596       -2.4785988931
 H         -7.2669815009        0.8136353965       -1.7375114947
 H         -6.4762210069       -1.3245838874       -0.6518576531
 H         -6.6247061339        0.0471675416        0.4632905522
 O         -4.0331314143       -1.5224776353       -0.6886307667
 C         -2.6839152393       -1.8100975329       -0.5314378672
 O         -2.2918168627       -2.7441228603       -1.2562115849
 O         -1.9221667492        0.6641398958        2.0006013538
 C         -0.4743418324       -1.3173764930        0.6336890899
 C          0.3683626643       -0.6715886506       -0.4405712264
 C          0.3678930432       -1.1420419942       -1.7505275950
 C          1.1335210831       -0.5187904865       -2.7181547435
 C          1.9260989289        0.5701856701       -2.3989920953
 C          1.9326232566        1.0498700300       -1.0953633806
 C          1.1527620783        0.4300037288       -0.1276710922
 H          1.1547780182        0.8267214042        0.8768349244
 N          2.7260672250        2.1574920872       -0.7409535428
 S          3.7932562335        1.9969667292        0.5395048349
 O          3.0699873958        1.8962023546        1.7802808999
 O          4.6964433608        3.1185405681        0.4093535702
 C          4.6537089322        0.4739678639        0.1937038455
 C          4.1446324046       -0.7134257116        0.6792317007
 C          4.7676810155       -1.9013595807        0.3315222014
 C          5.8838887520       -1.8808329647       -0.4903842177
 C          6.3871399953       -0.6790769903       -0.9656401832
 C          5.7640253746        0.5110549126       -0.6272141278
 H          6.1246462018        1.4676176829       -0.9694712995
 H          7.2583630679       -0.6670355651       -1.6005576212
 H          6.3649505196       -2.8077465012       -0.7599085739
 H          4.3746551772       -2.8348299825        0.7011764738
 H          3.2778622470       -0.6874113012        1.3187787920
 H          3.1966655275        2.5872982594       -1.5250883284
 H          2.5268418287        1.0530436753       -3.1549213181
 H          1.1182487568       -0.8891449911       -3.7319274856
 H         -0.2585713354       -1.9819906884       -2.0067561269
 H         -0.2515958163       -0.8061578577        1.5806390488
 C         -0.1441753141       -2.7877525217        0.7953060734
 C          1.0541312103       -3.1834634509        1.6024050377
 C         -0.3243543586       -3.4311835151        2.1359994708
 H         -0.6925421360       -4.4452762127        2.1749787527
 H         -0.6777972682       -2.8082565699        2.9452492239
 H          1.6367769246       -4.0308294675        1.2759125645
 H          1.6337525171       -2.3955240611        2.0597161299
 H         -0.3872696067       -3.3851454453       -0.0729691701
