  62
        -98.94009011
 C         -1.8965005192       -1.1291088944        0.5282544699
 C         -2.3392337594       -0.4425188979       -0.6283696220
 C         -3.0323037462        0.8344011065       -0.3899161323
 C         -3.1373398850        1.3115041550        0.8625433162
 C         -3.8365889305        2.5830062914        1.2449437357
 C         -5.3133041760        2.3296292486        1.5791866125
 C         -6.0503788826        1.5010673999        0.5271677938
 H         -5.6310921496        0.4925224027        0.5111752321
 H         -7.0893136525        1.4131000401        0.8517317312
 C         -6.0052925384        2.0899009689       -0.8896570018
 H         -7.0050753242        2.0327346363       -1.3250181148
 H         -5.7311493707        3.1444327308       -0.8442186388
 C         -5.0604791776        1.3632546830       -1.8486049896
 H         -5.2703056041        0.2908915589       -1.8269980699
 H         -5.2668182751        1.7168170591       -2.8623133135
 C         -3.5615595458        1.5657355463       -1.5918729100
 H         -3.3385923003        2.6327031214       -1.5210003319
 H         -3.0181508936        1.1616316186       -2.4514899666
 H         -5.3654081397        1.7985532496        2.5323365159
 H         -5.8096041029        3.2942258834        1.6993339823
 H         -3.3378386670        2.9952966709        2.1238026240
 H         -3.7532133594        3.2962503038        0.4269764030
 O         -2.6472260119        0.6544481848        1.9441040642
 C         -2.0262453071       -0.5733358714        1.8045955605
 O         -1.6385170351       -1.0751981426        2.8787001142
 O         -2.1716050720       -0.8516080967       -1.8079235313
 C         -1.1697123731       -2.4657236108        0.4847050221
 C          0.3115083717       -2.2199135653        0.3576184726
 C          1.2207599939       -2.7741755581        1.2499549434
 C          2.5715822819       -2.4869512221        1.1510506383
 C          3.0394481070       -1.6300790443        0.1701146879
 C          2.1365775191       -1.0708018730       -0.7239241785
 C          0.7890555184       -1.3750978329       -0.6357333930
 H          0.0954763280       -0.9323175838       -1.3361474602
 N          2.6059910593       -0.1402308442       -1.6909776590
 S          2.7008415694        1.4166115103       -1.0420009310
 O          1.5715450424        1.6990345042       -0.1810949487
 O          2.8776958189        2.3028740657       -2.1716206869
 C          4.1966829994        1.3520463654       -0.0831650834
 C          5.4074028153        1.3576031501       -0.7483146387
 C          6.5761728892        1.2777180321       -0.0081436378
 C          6.5135698829        1.1915293183        1.3749620712
 C          5.2896725889        1.1876599192        2.0269468937
 C          4.1166097166        1.2681232682        1.2928093957
 H          3.1419884390        1.2647955060        1.7551285070
 H          5.2417103647        1.1195236202        3.1018583013
 H          7.4241154034        1.1273759136        1.9495319554
 H          7.5299370454        1.2813354906       -0.5105502467
 H          5.4060290963        1.4306771159       -1.8230716107
 H          1.9959969226       -0.0950737032       -2.4977590447
 H          4.0879454611       -1.3940270838        0.0894578839
 H          3.2654211444       -2.9254683265        1.8514230180
 H          0.8580653082       -3.4174024017        2.0382924772
 H         -1.3454979278       -2.9226417117        1.4714289452
 C         -1.7203155655       -3.4213968828       -0.5641931591
 C         -0.9587321739       -3.8445686535       -1.7810400327
 C         -1.1699871770       -4.8139278137       -0.6597215513
 H         -1.8572784515       -5.6336703218       -0.8028333375
 H         -0.3178375012       -5.0518496675       -0.0410592886
 H         -1.5152482578       -3.9742688800       -2.6967212400
 H          0.0323499116       -3.4454898386       -1.9299246757
 H         -2.7930498921       -3.3131609642       -0.6857959209
