  62
        -98.94019840
 C         -2.5563020961       -1.0874901425       -0.1690234570
 C         -2.4561870980        0.3177794506       -0.0310571372
 C         -3.6593999712        0.9933582092        0.4716237672
 C         -4.7466410072        0.2714184672        0.7989049492
 C         -6.0383841565        0.8132151579        1.3485975551
 C         -7.0074084251        1.3265115764        0.2747096486
 C         -6.6062569804        2.6459379561       -0.3859012785
 H         -6.3995683432        3.3888167218        0.3851204612
 H         -7.4712571996        2.9962278788       -0.9525557749
 C         -5.4050009837        2.5390482292       -1.3355735350
 H         -5.6257081717        3.0720973762       -2.2630880289
 H         -5.2410157754        1.4917076141       -1.5992288022
 C         -4.1035705086        3.1178706709       -0.7800928125
 H         -4.2135520074        4.1947716930       -0.6342054448
 H         -3.3138138575        2.9573037755       -1.5183932757
 C         -3.6469707741        2.4905256364        0.5437722601
 H         -4.2773181943        2.8382337979        1.3620899601
 H         -2.6179351780        2.8044569197        0.7372428892
 H         -7.9794586018        1.4653907342        0.7533785685
 H         -7.1207627622        0.5552250522       -0.4904999863
 H         -6.5189677718       -0.0108347586        1.8803475001
 H         -5.8275058788        1.6105967500        2.0617696662
 O         -4.7894413438       -1.0827154592        0.6822114350
 C         -3.7079342302       -1.7907922315        0.1843278561
 O         -3.8888839206       -3.0233718138        0.1130679629
 H          1.1779412162       -0.9886321214       -1.2577685164
 C          1.0352028847       -1.2301279273       -0.2160390148
 C         -0.1930972093       -1.6955793354        0.2216050496
 C         -0.3481453070       -1.9929815959        1.5734009308
 C          0.6977450091       -1.8201820002        2.4582102304
 C          1.9242891434       -1.3524705784        2.0176240709
 C          2.0902011421       -1.0521426791        0.6733280924
 N          3.3387533841       -0.6094643959        0.1925284227
 S          4.1892148080        0.5765735948        1.0410015045
 O          4.6323611212        0.0228182149        2.2954843697
 O          3.4185025846        1.7981888378        1.1238845605
 C          5.5839386494        0.7925271437       -0.0470077489
 C          6.6161484590       -0.1241315426        0.0160515980
 C          7.6921568169        0.0188251007       -0.8451614161
 C          7.7178268887        1.0696265156       -1.7502464418
 C          6.6750306921        1.9822837369       -1.8009165107
 C          5.5950105276        1.8442896027       -0.9429005665
 H          4.7663845517        2.5345868392       -0.9418356657
 H          6.6987858707        2.7994504723       -2.5038606402
 H          8.5567687807        1.1795984521       -2.4191693938
 H          8.5058896155       -0.6873154248       -0.8077536202
 H          6.5566790553       -0.9189506584        0.7408162919
 H          3.2812961124       -0.3399591776       -0.7812257037
 H          2.7427077034       -1.2043437145        2.7024479504
 H          0.5605872452       -2.0508061116        3.5043593329
 H         -1.3069980018       -2.3549708589        1.9205412368
 C         -1.3768435131       -1.8859387944       -0.6959973254
 H         -1.6779579007       -2.9421204749       -0.6438682833
 C         -1.1047963916       -1.5272559721       -2.1415394992
 C         -0.4225458027       -2.5093952843       -3.0445016113
 C         -1.8831058842       -2.2217631565       -3.2167692790
 H         -2.1998847974       -1.6490529783       -4.0755480614
 H         -2.5954517136       -2.9724692112       -2.9065256185
 H         -0.1403314930       -3.4619246961       -2.6223793668
 H          0.2623760297       -2.1364342809       -3.7910538509
 H         -0.8984847223       -0.4718485517       -2.2786210130
 O         -1.4209164947        0.9766284490       -0.3132502331
