  62
        -98.93818503
 C         -0.4078802603       -2.0066422298       -0.2505600401
 C         -0.9532765302       -0.7868713198       -0.7145397802
 C         -2.3028242203       -0.4361662498       -0.2237577304
 C         -2.9018115604       -1.2271456497        0.6824583295
 C         -4.2418648605       -1.0554229297        1.3527942193
 C         -5.4179088303       -0.6482139597        0.4513745692
 C         -5.8972573903        0.7845604104        0.6894857791
 H         -6.9373142903        0.8634549204        0.3651451789
 H         -5.8748010105        0.9838237904        1.7630028391
 C         -5.1028921002        1.8653751303       -0.0414181009
 H         -5.3273785501        1.8173976903       -1.1090860509
 H         -5.4532988902        2.8342597803        0.3221917890
 C         -3.5838392302        1.7972981503        0.1329843393
 H         -3.3228102304        1.5598275503        1.1644330894
 H         -3.1831773102        2.7927473203       -0.0719406307
 C         -2.8980457401        0.8094172702       -0.8223547506
 H         -3.5920787200        0.5187896802       -1.6165237606
 H         -2.0560170801        1.3025215602       -1.3170447405
 H         -5.1495648702       -0.7902145197       -0.5942206308
 H         -6.2496096704       -1.3212037196        0.6661504091
 H         -4.4496221706       -2.0204006096        1.8210507693
 H         -4.1288654406       -0.3338796896        2.1661650993
 O         -2.3052501305       -2.3556802097        1.1636491396
 C         -1.0733857204       -2.7770812598        0.7056947898
 O         -0.6788165805       -3.8475156998        1.2132761999
 H          1.4517076398        0.0481295401       -0.1816904400
 C          2.1590735197       -0.6002517499        0.3082535802
 C          2.0536976497       -1.9741452599        0.1509522202
 C          2.9813614495       -2.7929196599        0.7838997803
 C          3.9820804995       -2.2454709099        1.5670154305
 C          4.0611886595       -0.8768381199        1.7523141204
 C          3.1366145896       -0.0512078099        1.1232838703
 N          3.1752564996        1.3418477101        1.2844190202
 S          1.7339498596        2.1920062902        1.3817949500
 O          2.0826657796        3.4069523802        2.0938314500
 O          0.6850771695        1.4015984502        1.9862809599
 C          1.3226564998        2.6377024901       -0.2907952001
 C          0.0405544699        3.0889425501       -0.5269725103
 C         -0.3032138899        3.4988285901       -1.8045825903
 C          0.6381641202        3.4489953900       -2.8199316702
 C          1.9219388202        2.9942094600       -2.5654365400
 C          2.2741156500        2.5879998101       -1.2881725699
 H          3.2615804499        2.2203780400       -1.0626158998
 H          2.6502459303        2.9491157000       -3.3594167799
 H          0.3661490303        3.7600697200       -3.8163917202
 H         -1.3042603699        3.8474063801       -2.0053767705
 H         -0.6636179802        3.0932715702        0.2904312197
 H          3.8548059295        1.6813889201        1.9495757003
 H          4.8258450294       -0.4497119899        2.3832499705
 H          4.6969414194       -2.8913290099        2.0539593006
 H          2.9027059395       -3.8646164699        0.6754511904
 C          0.9416668297       -2.5557580599       -0.6883606999
 H          0.9022086297       -3.6351538799       -0.4855916699
 C          1.2314844399       -2.3548135700       -2.1633749299
 C          2.1950565600       -3.2748515900       -2.8479092297
 C          0.7302987400       -3.3602398200       -3.1540110199
 H          0.3778640302       -3.0069072600       -4.1111477100
 H          0.1772114900       -4.2059154999       -2.7710778000
 H          2.6356500599       -4.0671506300       -2.2619113997
 H          2.8534962101       -2.8637723701       -3.5973132897
 H          1.2244224400       -1.3149760400       -2.4611055799
 O         -0.3663007801       -0.0044630099       -1.5089498402
