  62
        -98.94235365
 C          1.9654851652        0.6421489330       -0.0181792602
 C          2.9677138421        0.5403340494        0.9824663495
 C          4.0792616582       -0.3788000158        0.7093703844
 C          4.0846841823       -1.0754283305       -0.4412490611
 C          5.1781924054       -2.0059818501       -0.8774175306
 C          6.2400944192       -1.2683847975       -1.7051184818
 C          6.7360374589        0.0263384906       -1.0612451771
 H          7.5018995684        0.4436514639       -1.7185731115
 H          5.9143526194        0.7453880196       -1.0279317225
 C          7.3130431438       -0.1473919505        0.3506009738
 H          8.2443768674        0.4185244202        0.4204253735
 H          7.5578107271       -1.1958681242        0.5245444126
 C          6.4025979832        0.3530153383        1.4735752654
 H          6.9872631843        0.3839730677        2.3968210041
 H          6.0802471353        1.3744647125        1.2564787669
 C          5.1560618920       -0.4967481073        1.7509230535
 H          5.4455849378       -1.5407862313        1.8878848285
 H          4.7104109168       -0.1386843397        2.6836060114
 H          7.0827957263       -1.9434816342       -1.8648128729
 H          5.8112905807       -1.0239811197       -2.6797808443
 H          4.7360307068       -2.7942156234       -1.4892739444
 H          5.6355989915       -2.4562779263        0.0015651143
 O          3.1000389194       -0.9719369760       -1.3669195109
 C          2.0171390636       -0.1178941732       -1.1871596504
 O          1.2017557857       -0.1504975819       -2.1281884445
 O          2.9340163258        1.1988400970        2.0562129058
 C          0.8318700022        1.6149048002        0.2584022323
 C         -0.3536009381        0.9209024339        0.8787356345
 C         -0.9421198374        1.4104235849        2.0387432189
 C         -2.0368577675        0.7731231360        2.5973719263
 C         -2.5704869140       -0.3583885791        2.0077265601
 C         -1.9927318132       -0.8520654888        0.8445346177
 C         -0.8931977458       -0.2140349212        0.2885390003
 H         -0.4498602375       -0.6018972939       -0.6168024155
 N         -2.5373299492       -1.9908651678        0.2252029333
 S         -4.1983828698       -2.0258631137        0.0147604805
 O         -4.8282108931       -2.4483804099        1.2412851573
 O         -4.4231176360       -2.8743890233       -1.1338784050
 C         -4.6537367893       -0.3389695286       -0.3460715075
 C         -4.1438845556        0.2401480250       -1.4914009305
 C         -4.4470550702        1.5640994403       -1.7650613908
 C         -5.2487529567        2.2830664756       -0.8916227349
 C         -5.7581519941        1.6855072305        0.2505957386
 C         -5.4576038650        0.3618780688        0.5298020803
 H         -5.8304500069       -0.1411992860        1.4069525957
 H         -6.3835084771        2.2463348497        0.9262750248
 H         -5.4762656614        3.3153242509       -1.1053272004
 H         -4.0494077416        2.0304792108       -2.6520325351
 H         -3.5245073193       -0.3466286839       -2.1519398524
 H         -2.0558422040       -2.2559994882       -0.6217113079
 H         -3.4168583772       -0.8730983512        2.4325211441
 H         -2.4790023500        1.1599974781        3.5024645534
 H         -0.5257678513        2.2876791227        2.5114361153
 H          1.2395784303        2.3038011181        1.0148810629
 C          0.4552017229        2.4533572213       -0.9563373552
 C         -0.8135861415        2.2793207128       -1.7299403082
 C         -0.6337352251        3.4805248096       -0.8544690384
 H         -0.4803959629        4.4438751323       -1.3162594381
 H         -1.1987979516        3.5122246427        0.0647497944
 H         -0.7620197990        2.3981861343       -2.8014364004
 H         -1.5069243811        1.5179969184       -1.4100171239
 H          1.3312391098        2.7299317336       -1.5351491738
