  62
        -98.93322887
 C          1.9755350880        0.5707610008        0.1387266521
 C          2.6683403643       -0.5626378257        0.6354376232
 C          4.0419475845       -0.7625167729        0.1533666626
 C          4.5530683420        0.1092323354       -0.7345859813
 C          5.9588419230        0.0939469450       -1.2641023221
 C          6.9258633424        0.6615960943       -0.2055896203
 C          7.9307744708       -0.3536513741        0.3389146023
 H          8.7092519462       -0.5189550739       -0.4089125382
 H          8.4054964833        0.0933423910        1.2150143753
 C          7.3561303134       -1.7197752992        0.7259141863
 H          7.2160314272       -2.3264860484       -0.1700222261
 H          8.1148165149       -2.2248565254        1.3276515205
 C          6.0392887134       -1.6957403525        1.5128042516
 H          5.9226776360       -0.7481903016        2.0393357457
 H          6.0841926765       -2.4781233743        2.2732486398
 C          4.7813783320       -1.9671023071        0.6664139255
 H          4.0522878796       -2.4989683847        1.2850394462
 H          5.0390741796       -2.6216719084       -0.1710371227
 H          6.3330751755        1.0657166760        0.6177239526
 H          7.4819956253        1.4979038254       -0.6318185441
 H          6.2390019633       -0.9219190091       -1.5339063434
 H          5.9745203763        0.7109571092       -2.1627315262
 O          3.8547508761        1.1728676199       -1.2037200922
 C          2.5523685375        1.4357164389       -0.7919222478
 O          2.0558577795        2.4435276619       -1.3247756286
 O          2.1553846784       -1.3699176605        1.4578176566
 C          0.5651813184        0.7805076402        0.6596359258
 C         -0.4437021645        0.0991228562       -0.2284765149
 C         -0.4685362625        0.3275635583       -1.6007693813
 C         -1.4114414726       -0.2943341737       -2.3990585664
 C         -2.3494994413       -1.1500741370       -1.8478251441
 C         -2.3347444669       -1.3821979693       -0.4794630522
 C         -1.3853370826       -0.7589774853        0.3202089722
 H         -1.3687633429       -0.9568668216        1.3834539067
 N         -3.3104360980       -2.2289888632        0.0866752248
 S         -4.9001815101       -1.7252298610       -0.1055122848
 O         -5.6559720825       -2.4379500537        0.8986800497
 O         -5.3003882511       -1.9313519624       -1.4734460020
 C         -4.8439345827        0.0177717167        0.2670369636
 C         -4.6726601919        0.9276017147       -0.7569784094
 C         -4.5271144520        2.2692023947       -0.4420375377
 C         -4.5548048287        2.6758538741        0.8826614573
 C         -4.7354941703        1.7504048966        1.8994237857
 C         -4.8742952690        0.4067671143        1.5917683028
 H         -5.0182553203       -0.3437303870        2.3527382408
 H         -4.7592620534        2.0707703577        2.9286798105
 H         -4.4314330601        3.7193435180        1.1241724139
 H         -4.3860116306        2.9915423545       -1.2297647464
 H         -4.6607259798        0.5734162890       -1.7744842807
 H         -3.1353623639       -2.4444600092        1.0582368136
 H         -3.0971893808       -1.6355340493       -2.4541545517
 H         -1.4168914782       -0.1101131261       -3.4628010530
 H          0.2552185776        1.0029005100       -2.0313370557
 H          0.5507703951        0.2599116239        1.6302904946
 C          0.2229220416        2.2412235260        0.9226442896
 C         -0.8231648681        2.9975471334        0.1650202594
 C         -1.0781491318        2.5907659332        1.5829913219
 H         -1.0812024754        3.3491724302        2.3505958877
 H         -1.7807837385        1.7877141848        1.7494265142
 H         -0.6245200828        4.0353087198       -0.0535724276
 H         -1.3625348819        2.4839314350       -0.6149009576
 H          1.0935100126        2.8100690198        1.2317276240
