  62
        -98.93819405
 C         -2.8563631031       -0.7052265737       -0.0558621681
 C         -2.4713982140        0.1956451260       -1.0793106818
 C         -2.7165279838        1.6210402586       -0.8076267902
 C         -3.2953428060        1.9885542736        0.3487209172
 C         -3.5680141498        3.4037709370        0.7663457983
 C         -2.4039639736        3.9810132579        1.5827727896
 C         -1.0329157969        3.7847113907        0.9348663708
 H         -0.7790070133        2.7211693115        0.9281638336
 H         -0.2967036216        4.2764433736        1.5750067588
 C         -0.9177981484        4.3370824221       -0.4924532282
 H          0.0310048907        4.8698557632       -0.5817556382
 H         -1.7164696957        5.0566826950       -0.6788305184
 C         -0.9269216376        3.2661840477       -1.5849839588
 H         -0.1974124030        2.4915378456       -1.3315075301
 H         -0.5992495757        3.7317539997       -2.5187645470
 C         -2.2844525704        2.6043803863       -1.8585337623
 H         -2.1949323520        2.0317843684       -2.7863985817
 H         -3.0453706772        3.3746700913       -2.0021408247
 H         -2.3912969440        3.4952827399        2.5613016488
 H         -2.5851080879        5.0468606737        1.7340157858
 H         -3.7400788247        4.0111106155       -0.1200820128
 H         -4.4689605625        3.4105631560        1.3823700243
 O         -3.6725946245        1.0954640189        1.2993283266
 C         -3.4355487954       -0.2573429594        1.1352227196
 O         -3.7960519716       -0.9595013781        2.1012155121
 H         -0.3186435729       -1.2627769666       -1.1666464226
 C         -0.1361336471       -1.8636825306       -0.2872078831
 C         -1.2079298580       -2.4690470199        0.3562339663
 C         -0.9549365813       -3.2318451400        1.4891295750
 C          0.3361016345       -3.3712577461        1.9714627259
 C          1.3964588028       -2.7449571408        1.3409208322
 C          1.1514936119       -1.9871923358        0.2046956746
 N          2.2264203281       -1.2937375871       -0.4146955608
 S          2.5598218041        0.1866074549        0.3428601756
 O          2.3463075557        0.0404100370        1.7609515550
 O          1.8273262036        1.2452166876       -0.3187315566
 C          4.3016116479        0.3548408892        0.0058274760
 C          4.7269002723        1.1623798542       -1.0302858104
 C          6.0836802750        1.2422871540       -1.3037140024
 C          6.9853151159        0.5135560825       -0.5434023486
 C          6.5422414146       -0.2938442277        0.4938628034
 C          5.1876868246       -0.3768529075        0.7722060185
 H          4.7972274734       -0.9835633656        1.5724184674
 H          7.2464676361       -0.8577570713        1.0840993676
 H          8.0401670896        0.5764708611       -0.7593134085
 H          6.4309052869        1.8707707532       -2.1080007586
 H          3.9907809230        1.7156152835       -1.5911040783
 H          2.0058328364       -1.0791175036       -1.3797580704
 H          2.4005316529       -2.8194060468        1.7247084079
 H          0.5143369716       -3.9620466419        2.8571556048
 H         -1.7821446669       -3.6931317787        2.0090139918
 C         -2.6104392890       -2.2068010598       -0.1298706231
 H         -3.3068631046       -2.6496071875        0.5982368525
 C         -2.9190117167       -2.8028218156       -1.4970914742
 C         -1.9205654733       -3.5810201020       -2.2977647470
 C         -3.0620802269       -4.2897190663       -1.6380631445
 H         -3.8604472727       -4.6778711337       -2.2520085000
 H         -2.8403904371       -4.8906485758       -0.7687639386
 H         -0.9321495872       -3.7214197453       -1.8885531928
 H         -1.9348210282       -3.4568326818       -3.3699943421
 H         -3.6142085880       -2.1941396603       -2.0641551772
 O         -1.9512260353       -0.1502383374       -2.1730649459
