  62
        -98.94309569
 C         -2.5572830705       -0.1931783608        0.5381464865
 C         -2.2126525487        0.3505019129       -0.7248011567
 C         -2.0082875360        1.8070616714       -0.7636086295
 C         -2.1118426298        2.5217215933        0.3701274153
 C         -1.9021298962        4.0041605774        0.4792136620
 C         -0.4473498023        4.3468463042        0.8253590930
 C          0.5848597820        3.6564753528       -0.0665987898
 H          1.5692067920        4.0243752050        0.2334562191
 H          0.5781140253        2.5811678080        0.1303516393
 C          0.3872635743        3.8910614978       -1.5707198140
 H         -0.2464731787        4.7645836199       -1.7321397461
 H          1.3594195393        4.1060814616       -2.0189305493
 C         -0.1928682206        2.6898219350       -2.3201681726
 H          0.3601289373        1.7898737029       -2.0400590350
 H         -0.0478274160        2.8515819802       -3.3920030135
 C         -1.6868441599        2.4231904800       -2.0958436155
 H         -2.0108596004        1.6967601724       -2.8470002602
 H         -2.2542074371        3.3457489743       -2.2408718929
 H         -0.2569568880        4.0489399515        1.8593471977
 H         -0.3246532526        5.4296517934        0.7542472063
 H         -2.1821206118        4.4728037685       -0.4624218244
 H         -2.5517235519        4.3825250734        1.2708817686
 O         -2.4007392309        1.9601862049        1.5735212093
 C         -2.6063505272        0.5956524971        1.6887438280
 O         -2.8295033432        0.2105464150        2.8558571181
 O         -2.0984582511       -0.3308916590       -1.7762497169
 C         -2.7515238737       -1.6884071634        0.7361694318
 C         -1.6162286430       -2.4210525999        0.0639118264
 C         -1.7782850058       -3.4366280350       -0.8680968511
 C         -0.6714990490       -4.0226545379       -1.4586879109
 C          0.6079496221       -3.6011301884       -1.1485315660
 C          0.7797562968       -2.5915117581       -0.2076215501
 C         -0.3269158304       -2.0312360443        0.4050084351
 H         -0.1856458476       -1.2443919104        1.1336318287
 N          2.0636576998       -2.1349866524        0.1472513367
 S          2.2233285595       -0.4780607000        0.4473209400
 O          1.8496222504       -0.2158559542        1.8165306593
 O          1.5337405459        0.2844679606       -0.5657604209
 C          3.9879618457       -0.2883809544        0.2738551986
 C          4.5049278905        0.3447888155       -0.8398394223
 C          5.8808520402        0.4594416256       -0.9668727802
 C          6.7105921756       -0.0614360869        0.0142932640
 C          6.1763819752       -0.6939025602        1.1275561102
 C          4.8022109676       -0.8095784843        1.2620430377
 H          4.3404837355       -1.2826867706        2.1129851962
 H          6.8243853592       -1.0954723425        1.8897482069
 H          7.7805473745        0.0280643221       -0.0875386786
 H          6.2983319257        0.9536129771       -1.8292442792
 H          3.8194714751        0.7370090307       -1.5739970960
 H          2.7775074692       -2.4572795035       -0.4928981699
 H          1.4668422279       -4.0415542227       -1.6320415917
 H         -0.8096085747       -4.8058604936       -2.1887966196
 H         -2.7688005866       -3.7490771740       -1.1553786887
 H         -2.6470020296       -1.8419007682        1.8240766651
 C         -4.1294421595       -2.2090917982        0.3572913826
 C         -5.3261370476       -1.3064722075        0.3757329965
 C         -4.8062254529       -1.8349085059       -0.9256351734
 H         -5.3852558703       -2.5902973340       -1.4366700910
 H         -4.2831449716       -1.1616143965       -1.5853380179
 H         -6.2568269740       -1.6976369047        0.7585984024
 H         -5.1607392769       -0.2643173689        0.6090730458
 H         -4.2899378293       -3.2213209255        0.7160336766
