  62
        -98.93605079
 C         -2.4988255160       -0.9709961297        0.5890960224
 C         -2.7891835683        0.2832634721        1.1861506881
 C         -4.1473961737        0.7999324212        0.9922057854
 C         -5.0428074925        0.0704218634        0.3028939389
 C         -6.4722066546        0.4507196849        0.0270912274
 C         -6.6467620003        1.3719928650       -1.1881933499
 C         -6.1824856147        2.8147703814       -0.9844020721
 H         -6.5623534061        3.3951089622       -1.8275618520
 H         -6.6386370626        3.2178862189       -0.0797719044
 C         -4.6585720797        2.9873055899       -0.9150177812
 H         -4.1706591506        2.0975351977       -1.3199760250
 H         -4.3579304585        3.8293944065       -1.5424440814
 C         -4.1132855886        3.2521058951        0.4885169185
 H         -3.0237098478        3.3164601220        0.4264622847
 H         -4.4875790929        4.2112945035        0.8532414675
 C         -4.4638415177        2.1680205582        1.5160172970
 H         -3.8544323684        2.3308307843        2.4084514890
 H         -5.5157933726        2.2361727462        1.7925277243
 H         -6.1150235698        0.9348544484       -2.0363762004
 H         -7.7108945854        1.3872564417       -1.4346267256
 H         -7.0097778788       -0.4799691732       -0.1661252282
 H         -6.9023034018        0.9245107895        0.9098690772
 O         -4.7396297508       -1.1435040975       -0.2239810578
 C         -3.4614004651       -1.6854284005       -0.1258366085
 O         -3.3433275190       -2.7805703919       -0.7038157357
 O         -1.9479850622        0.9390870053        1.8589473079
 C         -1.0805150552       -1.4839052473        0.7568885974
 C         -0.2012756097       -1.0242226835       -0.3781129946
 C         -0.5825851827       -1.1937834790       -1.7058957248
 C          0.2478217687       -0.7774050528       -2.7301948549
 C          1.4732883064       -0.1970177172       -2.4535809423
 C          1.8579461691       -0.0121897935       -1.1306714334
 C          1.0169796086       -0.4212476800       -0.1045143784
 H          1.3230762395       -0.2610012285        0.9187236992
 N          3.0808135628        0.6005224774       -0.8175658252
 S          3.9067676974        0.0798416499        0.5604409301
 O          3.8990039198       -1.3643734640        0.6218345089
 O          3.3790368434        0.7699668084        1.7102347154
 C          5.5444120722        0.6830971910        0.1984244163
 C          6.4988462967       -0.1844564684       -0.2975775833
 C          7.7581791162        0.3085968800       -0.6020721052
 C          8.0384387844        1.6529967103       -0.4097111377
 C          7.0699510309        2.5113791788        0.0899588710
 C          5.8095946903        2.0250460609        0.3981349277
 H          5.0283693592        2.6509402519        0.7972626031
 H          7.2923486271        3.5553841270        0.2409675022
 H          9.0188015679        2.0342259633       -0.6480247617
 H          8.5143636150       -0.3563913454       -0.9870449158
 H          6.2375616128       -1.2228037864       -0.4240132337
 H          3.6944966597        0.6892972002       -1.6159652783
 H          2.1229512575        0.1189747857       -3.2555499604
 H         -0.0580362764       -0.9169510290       -3.7562556963
 H         -1.5304369860       -1.6631612801       -1.9231529959
 H         -0.7106003773       -0.9911020554        1.6713434751
 C         -0.9928303646       -2.9850107627        0.9930378896
 C         -0.4472820647       -3.9538878660       -0.0080121233
 C          0.3441948436       -3.6275475912        1.2207943315
 H          0.4328391381       -4.3747186151        1.9951433585
 H          1.2239066988       -3.0096024574        1.1046975291
 H         -0.9262325547       -4.9183121535       -0.0796255324
 H         -0.1000840671       -3.5706648887       -0.9542861274
 H         -1.8137596286       -3.3438292308        1.6060974947
