  62
        -98.93870843
 C          2.6930112955        0.1669563703       -0.2632870577
 C          2.2650780007        0.9506520715        0.8377168210
 C          1.8465449162        2.3247247210        0.5168175953
 C          1.8578025061        2.7572190324       -0.7556156271
 C          1.5082418054        4.1426053271       -1.2295143243
 C          0.0056003572        4.3875463943       -1.4181654213
 C         -0.7949110175        4.5335879788       -0.1237853632
 H         -0.3086590419        5.2619719950        0.5263220830
 H         -1.7727142822        4.9368553304       -0.3943551948
 C         -1.0021393088        3.2169519443        0.6364069580
 H         -0.8239108916        2.3712530094       -0.0317843806
 H         -2.0434814499        3.1386899065        0.9604988005
 C         -0.1364771955        3.0457883035        1.8848082217
 H         -0.3280245169        2.0449421809        2.2821835517
 H         -0.4356081269        3.7745107931        2.6428768176
 C          1.3715900598        3.1899790383        1.6454228678
 H          1.6216563938        4.2339069195        1.4528220977
 H          1.8911277690        2.8651911806        2.5509817799
 H         -0.4103429002        3.5674199335       -2.0081795271
 H         -0.1041773890        5.3079975140       -1.9966394601
 H          2.0021646511        4.2699043686       -2.1953748119
 H          1.9125570608        4.8778801087       -0.5325280703
 O          2.2452654153        1.9636760909       -1.7900602022
 C          2.6422014844        0.6571131284       -1.5706389967
 O          2.9530956520        0.0368591049       -2.6091455432
 O          2.2472447216        0.5594020085        2.0333760355
 C          3.1333934804       -1.2848122244       -0.1516781322
 C          1.9638577359       -2.1955723475       -0.4318642756
 C          2.1078724442       -3.3562225496       -1.1812548573
 C          1.0177465915       -4.1718453208       -1.4360519753
 C         -0.2421952654       -3.8259761961       -0.9834905033
 C         -0.3983283663       -2.6572650880       -0.2464610720
 C          0.7027760289       -1.8730576850        0.0512783950
 H          0.5673581497       -0.9851462541        0.6512422110
 N         -1.6941733076       -2.2312529895        0.1383181287
 S         -1.9559922569       -0.5888518429        0.3470424883
 O         -1.3058356059        0.1035144694       -0.7367935101
 O         -1.6485754911       -0.1701849921        1.6985126197
 C         -3.7231297346       -0.5415852944        0.1121461297
 C         -4.5628784990       -0.4269735535        1.2028013836
 C         -5.9340161355       -0.4252189138        0.9978692722
 C         -6.4396992049       -0.5393862681       -0.2879144392
 C         -5.5842354270       -0.6518443015       -1.3741574823
 C         -4.2132255599       -0.6542533731       -1.1747737112
 H         -3.5086989690       -0.7318232861       -1.9868342181
 H         -5.9799461292       -0.7374760987       -2.3733913886
 H         -7.5067042110       -0.5384401702       -0.4454685998
 H         -6.6006049197       -0.3349446628        1.8404292092
 H         -4.1242152281       -0.3317973865        2.1831411851
 H         -2.1412223827       -2.7953793591        0.8455818421
 H         -1.1012845147       -4.4389342779       -1.2033537738
 H          1.1484443366       -5.0744819059       -2.0131587491
 H          3.0788716238       -3.6092237905       -1.5814521773
 H          3.8645798150       -1.4359385330       -0.9632752854
 C          3.8337859452       -1.6129962366        1.1587490529
 C          3.1789486660       -2.3827922251        2.2619103656
 C          4.2701311639       -3.0172462906        1.4563899517
 H          5.2334802920       -3.1671435920        1.9194726317
 H          3.9882667917       -3.7894025100        0.7573346456
 H          3.3819824583       -2.0748205244        3.2759503204
 H          2.1648471885       -2.7192092072        2.1086777689
 H          4.5079528940       -0.8195135407        1.4631044083
