  62
        -98.93747624
 C          1.7823636492        1.5541743578        0.2210811009
 C          1.9705182909        0.4576617954        1.0989455034
 C          3.0451887566       -0.4945692006        0.7695484322
 C          3.7696883505       -0.3011215279       -0.3484319594
 C          4.9561991746       -1.0494278251       -0.9201031548
 C          5.4147729080       -2.3669232153       -0.3026767339
 C          4.4716177458       -3.5444991055       -0.5523013064
 H          4.5586642608       -3.8359442139       -1.6020980619
 H          4.8049507108       -4.3887273203        0.0548332870
 C          2.9940315613       -3.2802485062       -0.2732201357
 H          2.6399680751       -2.4650799479       -0.9070629858
 H          2.4411314008       -4.1790148971       -0.5591178364
 C          2.6468791826       -2.9642819128        1.1793535562
 H          2.9871247567       -3.7771048170        1.8242299028
 H          1.5579744197       -2.9050929046        1.2553196278
 C          3.2174272770       -1.6447148318        1.7206735964
 H          2.6559847497       -1.3800327264        2.6216274956
 H          4.2600007158       -1.7559389739        2.0088035160
 H          6.3760128929       -2.6114967298       -0.7627149749
 H          5.6011814123       -2.2361636144        0.7593236953
 H          4.7351309215       -1.2059815705       -1.9808229356
 H          5.7902272098       -0.3398918952       -0.8840906780
 O          3.5201335116        0.7438207926       -1.1892423452
 C          2.5309121105        1.6831668138       -0.9476307869
 O          2.4418748343        2.5491888593       -1.8386149955
 H         -1.4889324806        1.4238790960        1.6593199283
 C         -1.6199885793        1.6166905947        0.6030893024
 C         -0.5856779018        2.2041007606       -0.1116556125
 C         -0.7533625109        2.4171544848       -1.4756863458
 C         -1.9367154674        2.0611875893       -2.0973123581
 C         -2.9722530850        1.4882738438       -1.3789180158
 C         -2.8079084400        1.2566575259       -0.0197809645
 N         -3.8517569447        0.6760780036        0.7261420517
 S         -4.5116550982       -0.7694991544        0.2025180367
 O         -5.2235546615       -0.5487162158       -1.0301746062
 O         -5.2937165465       -1.2521760192        1.3169802904
 C         -3.1148990400       -1.8407450212       -0.0782844202
 C         -2.5243219883       -1.8751674583       -1.3253747775
 C         -1.4045435839       -2.6696432040       -1.5120144213
 C         -0.8997989441       -3.4122833699       -0.4562078098
 C         -1.5041434979       -3.3663564275        0.7906684003
 C         -2.6193913707       -2.5684591629        0.9853512571
 H         -3.1229175493       -2.5105481484        1.9370548125
 H         -1.1085075487       -3.9458435148        1.6096232587
 H         -0.0302269295       -4.0321826116       -0.6072201342
 H         -0.9293601290       -2.7065411200       -2.4792228293
 H         -2.9511505394       -1.2926666417       -2.1249933980
 H         -3.6504838806        0.6189233969        1.7144162481
 H         -3.9003098042        1.2103327420       -1.8518974617
 H         -2.0567554145        2.2344214672       -3.1562050810
 H          0.0583079835        2.8425832812       -2.0452638215
 C          0.7006163505        2.5532113888        0.5970044910
 H          0.5359337280        2.4031729302        1.6726787812
 C          1.0969247845        3.9980254437        0.3742792523
 C          0.3373764315        5.0726106262        1.0908378750
 C          1.7473277391        4.7578641134        1.4895159656
 H          2.5250064344        5.4655028583        1.2445352258
 H          1.9098113005        4.2383929101        2.4228217142
 H          0.1433436468        5.9989497574        0.5725591542
 H         -0.4575733563        4.7659162986        1.7539695558
 H          1.4393822373        4.2073681737       -0.6299479917
 O          1.2756200118        0.2913467058        2.1378303375
