  62
        -98.93970501
 C         -1.7681858869       -0.7036198142        0.2141992213
 C         -3.0766115613       -0.9305472714        0.7004855451
 C         -4.0005783870        0.2144895303        0.6484447024
 C         -3.5644884189        1.3918029839        0.1681671318
 C         -4.3145584843        2.6959938278        0.0604703961
 C         -5.7637843414        2.6411207927       -0.4421594770
 C         -6.0541910206        1.5368924099       -1.4691474536
 H         -6.5553936944        1.9782683648       -2.3326795236
 H         -5.1194461736        1.0995385292       -1.8244318830
 C         -6.9575147762        0.4310536817       -0.9177832980
 H         -7.7641957031        0.8916875916       -0.3433219903
 H         -7.4154965829       -0.0990475707       -1.7564314074
 C         -6.2592264590       -0.6145619092       -0.0491720728
 H         -5.6099357870       -1.2379102654       -0.6701218010
 H         -7.0261980972       -1.2705542135        0.3696551532
 C         -5.4063663896       -0.0560613540        1.1017076063
 H         -5.8659817884        0.8259552549        1.5407757273
 H         -5.3320017805       -0.8301421887        1.8704210988
 H         -6.4394494804        2.5243393510        0.4040024727
 H         -5.9806942952        3.6150202858       -0.8842970079
 H         -4.2947304083        3.1815180173        1.0404929711
 H         -3.7164888093        3.3116023627       -0.6156253094
 O         -2.2886590743        1.5685439323       -0.2792464771
 C         -1.3654319647        0.5353031154       -0.2789167679
 O         -0.2470938285        0.8459577442       -0.7296600219
 O         -3.4534232446       -2.0371158532        1.1710723883
 C         -0.7721308907       -1.8484205842        0.2150310266
 C          0.4650314106       -1.4648300290        0.9870781840
 C          0.3226744466       -0.9962684956        2.2917565209
 C          1.4261271003       -0.6340823873        3.0384595360
 C          2.6976536450       -0.7230408706        2.4975128034
 C          2.8519339644       -1.1941996940        1.2004954531
 C          1.7407244009       -1.5726357681        0.4572259667
 H          1.8947415391       -1.9300289705       -0.5465896949
 N          4.1327197232       -1.3219830794        0.6293971127
 S          4.4822871141       -0.5417737813       -0.8108247786
 O          3.6024135117       -1.0084139873       -1.8496510971
 O          5.8952724505       -0.7753304616       -1.0176385822
 C          4.2151009463        1.1875382723       -0.4631175431
 C          2.9284136621        1.6862878861       -0.4298187176
 C          2.7420415531        3.0177988667       -0.0893181464
 C          3.8312049956        3.8209413893        0.2097667032
 C          5.1172272217        3.3026060102        0.1708794780
 C          5.3123402843        1.9728450253       -0.1631452198
 H          6.2930602283        1.5273495785       -0.2094316744
 H          5.9641430110        3.9286915421        0.4014670821
 H          3.6758982399        4.8554450665        0.4731930570
 H          1.7367911941        3.4078436901       -0.0619181408
 H          2.0859156137        1.0554015363       -0.6660061340
 H          4.8853463918       -1.1577497489        1.2838938786
 H          3.5621732623       -0.4351030295        3.0764025091
 H          1.2975335160       -0.2730401603        4.0476555125
 H         -0.6715717595       -0.9194781135        2.7107810730
 H         -1.2708670945       -2.6696492725        0.7514376428
 C         -0.4900072539       -2.2984880728       -1.2029501584
 C         -0.0856489832       -3.7149035220       -1.4776933591
 C         -1.4490281042       -3.2344689838       -1.8726708972
 H         -1.6636685207       -3.0906666523       -2.9211426811
 H         -2.2975442529       -3.5710635641       -1.2947551152
 H          0.6414516908       -3.8992313313       -2.2544313509
 H         -0.0090545457       -4.3850108589       -0.6347520921
 H         -0.0486266105       -1.5175177227       -1.8134409035
