  62
        -98.94053904
 C          2.3718762050        0.7582865113       -0.1147079303
 C          3.5495291613        1.0629221879        0.6088576420
 C          4.8025686681        0.5721412409        0.0252412904
 C          4.7768455407       -0.1008896624       -1.1397475132
 C          5.9727820427       -0.6465783800       -1.8721442801
 C          6.4372802688       -2.0211890401       -1.3712929100
 C          7.1323750374       -2.0167425328       -0.0091793794
 H          7.5947252959       -2.9976323420        0.1177197685
 H          7.9336755753       -1.2772833885       -0.0138881310
 C          6.1957098940       -1.7558230965        1.1787024142
 H          5.1605714598       -1.9159419246        0.8679142417
 H          6.4057339359       -2.4751495034        1.9734950290
 C          6.3189195632       -0.3591128020        1.7879173228
 H          7.3138163716       -0.2342284580        2.2209226466
 H          5.5870503243       -0.2708464299        2.5950055892
 C          6.0700709977        0.7854328579        0.7967346755
 H          5.9612541165        1.7130458311        1.3639352246
 H          6.9166603931        0.8870145355        0.1182670061
 H          5.5741158503       -2.6899770886       -1.3381269772
 H          7.1368238930       -2.4175915533       -2.1107884302
 H          5.6772201030       -0.7433923454       -2.9189779828
 H          6.7975340981        0.0636136268       -1.8076711158
 O          3.6242684615       -0.3543647385       -1.8157866306
 C          2.3944760338        0.0478130738       -1.3146472795
 O          1.4218356283       -0.2782150168       -2.0214391037
 O          3.5521333536        1.7098749377        1.6906677034
 C          1.0343297240        1.2172658379        0.4343024177
 C          0.1202902372        0.0374052593        0.6551555005
 C          0.6037803106       -1.0702653362        1.3482558298
 C         -0.2023513592       -2.1673997450        1.5784799910
 C         -1.5146831916       -2.1787508780        1.1387130754
 C         -2.0087172698       -1.0780569343        0.4502628877
 C         -1.1921006476        0.0196335737        0.2124186012
 H         -1.6036081675        0.8577605689       -0.3241142397
 N         -3.3296499823       -1.0644856934       -0.0264420537
 S         -4.1737468661        0.3979079900       -0.0096310466
 O         -3.8435080876        1.1495145331       -1.1939730369
 O         -3.9696136896        1.0715716253        1.2530739944
 C         -5.8504689882       -0.1996002763       -0.1269404557
 C         -6.6085859830       -0.3259887693        1.0218197441
 C         -7.9005838360       -0.8179589432        0.9217349043
 C         -8.4086310145       -1.1761881648       -0.3178653136
 C         -7.6359278252       -1.0432049185       -1.4621442617
 C         -6.3440514001       -0.5504200751       -1.3695022140
 H         -5.7100964813       -0.4209412563       -2.2313004651
 H         -8.0352580002       -1.3200439742       -2.4245114765
 H         -9.4141552857       -1.5589143527       -0.3934109393
 H         -8.5049642319       -0.9191438864        1.8087393563
 H         -6.1747855071       -0.0268073724        1.9624173938
 H         -3.8888887436       -1.8212103464        0.3431458829
 H         -2.1462813701       -3.0349949290        1.3207475401
 H          0.1902461319       -3.0197128311        2.1127349428
 H          1.6261915783       -1.0578010002        1.7017400542
 H          1.2572139684        1.6627340614        1.4161958976
 C          0.4359256681        2.2858784233       -0.4556138439
 C         -0.5069660981        3.3019028248        0.1139653095
 C          0.8772623366        3.7080515977       -0.2914217348
 H          0.9995211162        4.3154512110       -1.1755446454
 H          1.5972126087        3.9162808954        0.4865454084
 H         -1.3426030014        3.6226560667       -0.4906405656
 H         -0.7339119913        3.2373695324        1.1677853102
 H          0.2519865899        1.9319759324       -1.4646740664
