  62
        -98.94343197
 C         -1.8901441991       -0.6820633266       -0.7429600344
 C         -2.2109750883       -0.0971795649        0.5060312938
 C         -3.6379907920       -0.0872934993        0.8529099404
 C         -4.5356928305       -0.6358910446        0.0141177893
 C         -6.0201789494       -0.7289319593        0.2426177114
 C         -6.7942009947        0.5364576025       -0.1514905736
 C         -6.6119261657        1.7291273939        0.7879964211
 H         -7.3715838888        2.4662992924        0.5203509156
 H         -6.8101235291        1.4156101392        1.8134310884
 C         -5.2299944531        2.3925971768        0.7078185969
 H         -4.7309164059        2.0841862617       -0.2136677468
 H         -5.3496274386        3.4772740678        0.6593138059
 C         -4.3118140680        2.0905790765        1.8921776397
 H         -4.7399349324        2.5121156046        2.8043408232
 H         -3.3506230040        2.5787961075        1.7135497173
 C         -4.0477682225        0.5967449430        2.1221457443
 H         -4.9314732050        0.1190328948        2.5447501825
 H         -3.2224380209        0.4987637414        2.8315907071
 H         -7.8549700126        0.2758629499       -0.1719527475
 H         -6.5030945127        0.8224174287       -1.1648745660
 H         -6.3777308656       -1.5566458388       -0.3737555854
 H         -6.2158099244       -0.9654852064        1.2889150327
 O         -4.1815619870       -1.2082655037       -1.1681233114
 C         -2.8590591134       -1.2315958616       -1.5813614746
 O         -2.6762300792       -1.7708427327       -2.6924461705
 O         -1.3549913003        0.3856701912        1.2910011780
 C         -0.4453688874       -0.7277489947       -1.2032276976
 C          0.4102223627       -1.4676566788       -0.2032025550
 C         -0.0746371719       -2.6389308264        0.3732939104
 C          0.6839975888       -3.3444279512        1.2862439166
 C          1.9527773511       -2.9103702568        1.6279177949
 C          2.4541996770       -1.7532561087        1.0462065669
 C          1.6820604177       -1.0368158257        0.1412464331
 H          2.0899616176       -0.1417883024       -0.2977986117
 N          3.7325478067       -1.2822840605        1.3773614964
 S          4.7186272382       -0.6207504777        0.2005780883
 O          4.5085902489       -1.2430376492       -1.0856818637
 O          6.0560400202       -0.7290483527        0.7448901081
 C          4.2694645856        1.1006441010        0.1340086365
 C          4.3182486163        1.7543444388       -1.0813109257
 C          4.0181639954        3.1069720516       -1.1290261631
 C          3.6761595964        3.7788143093        0.0342443507
 C          3.6339614966        3.1079717488        1.2471217302
 C          3.9372254473        1.7569841668        1.3024501266
 H          3.9099486858        1.2060843079        2.2276273911
 H          3.3642086345        3.6329132796        2.1493940032
 H          3.4398748980        4.8305401660       -0.0050099047
 H          4.0507861439        3.6298528053       -2.0718888653
 H          4.5775833198        1.1904550526       -1.9633363843
 H          4.2510029730       -1.8651215322        2.0180805237
 H          2.5486074948       -3.4622154960        2.3390471895
 H          0.2883771471       -4.2453355988        1.7309798970
 H         -1.0619344134       -2.9863492751        0.0996080296
 H         -0.4402663038       -1.3044409509       -2.1406036224
 C          0.0459397188        0.6760811904       -1.4928122811
 C          1.0843116332        0.9177564433       -2.5453858082
 C         -0.3380122367        1.3212406704       -2.7893020783
 H         -0.5831375772        2.3725496942       -2.7906180576
 H         -0.9281969143        0.7336907585       -3.4779273916
 H          1.8140085601        1.6950823142       -2.3757350584
 H          1.4709556851        0.0596295441       -3.0748862470
 H          0.0611420909        1.3001391189       -0.6064424678
