  62
        -98.94375184
 C         -1.9281169344       -1.2736379944       -0.2825735070
 C         -1.8464356850        0.0272560882        0.2701140325
 C         -3.0882461785        0.5451214481        0.8583076635
 C         -4.1943225227       -0.2205184834        0.8714853958
 C         -5.5292355925        0.1637213222        1.4497637287
 C         -6.4050534348        0.9914304811        0.4989263601
 C         -5.9528984075        2.4371476363        0.2879871940
 H         -6.7696774872        2.9566742872       -0.2171859705
 H         -5.8125721003        2.9175888495        1.2568512282
 C         -4.6777649587        2.5862712467       -0.5536255738
 H         -4.4912968067        1.6580251206       -1.0986555071
 H         -4.8240942448        3.3711354496       -1.2991112131
 C         -3.4275708320        2.9491321815        0.2479611628
 H         -2.5800743039        2.9870780987       -0.4408040400
 H         -3.5495692151        3.9410384552        0.6886627997
 C         -3.0872451131        1.9553907811        1.3662027460
 H         -3.7890494524        2.0643674957        2.1926992970
 H         -2.0811653348        2.1763671692        1.7314861544
 H         -6.4530676846        0.4800677683       -0.4653709873
 H         -7.4143823043        1.0064945584        0.9167666583
 H         -5.3823123523        0.7113049045        2.3812510013
 H         -6.0514444812       -0.7689690536        1.6741209870
 O         -4.2204845455       -1.4805558990        0.3596194115
 C         -3.0994222849       -2.0286540892       -0.2444433537
 O         -3.2671968840       -3.1813920713       -0.6931384927
 O         -0.7975434697        0.7191089276        0.2745720595
 C         -0.7116260791       -1.8825019609       -0.9542140050
 C          0.4655668868       -1.9047102082       -0.0096351917
 C          0.2686087239       -2.2716423725        1.3188007891
 C          1.3212410973       -2.2921818256        2.2136903086
 C          2.6008048939       -1.9616836217        1.8021791638
 C          2.8123103890       -1.6101969891        0.4767287818
 C          1.7511813106       -1.5862124823       -0.4211375114
 H          1.9358324326       -1.3081695635       -1.4474177367
 N          4.1196282412       -1.2852835206        0.0543352153
 S          4.8075723589        0.1202561309        0.6533361567
 O          6.1484887057        0.1584347097        0.1153692663
 O          4.6918457724        0.1220873572        2.0885805969
 C          3.8428169943        1.4419946713       -0.0575331709
 C          2.5428296755        1.6217970593        0.3710547122
 C          1.7666299482        2.5968788655       -0.2349019679
 C          2.3038688323        3.3773239458       -1.2468591699
 C          3.6146752169        3.1904372559       -1.6605794312
 C          4.3909070329        2.2075297558       -1.0685682629
 H          5.4105816613        2.0201020192       -1.3644734659
 H          4.0293347347        3.8012332129       -2.4465513445
 H          1.6951155264        4.1341785594       -1.7166148300
 H          0.7401590143        2.7086539021        0.0747633432
 H          2.1401127255        1.0028314150        1.1562974064
 H          4.2291612665       -1.2989430198       -0.9506000141
 H          3.4298122166       -1.9537665817        2.4904637250
 H          1.1457788960       -2.5704410365        3.2421724344
 H         -0.7291889512       -2.5323179791        1.6457621369
 H         -0.9806338823       -2.9229991685       -1.1891899869
 C         -0.4264555418       -1.1467817836       -2.2487808447
 C          0.1666475527       -1.8673073046       -3.4214135660
 C         -1.2714470224       -1.4468071623       -3.4488500290
 H         -1.5604106392       -0.6315151658       -4.0949389739
 H         -2.0311242053       -2.2075948964       -3.3403572084
 H          0.8636303256       -1.3386174240       -4.0545852727
 H          0.3825813685       -2.9190585155       -3.3075844045
 H         -0.1413732028       -0.1136790507       -2.0831316418
