  62
        -98.94483038
 C          2.0240149614        1.3728563267        0.2826312706
 C          2.6330019430        0.7338327959       -0.8246823982
 C          3.7770593812       -0.1307293377       -0.5077672326
 C          4.1922029651       -0.2548620693        0.7659925529
 C          5.3583169369       -1.0787094353        1.2411308620
 C          5.0239403133       -2.5587969728        1.4722942719
 C          4.8064071027       -3.3825946751        0.2023321558
 H          5.6548441993       -3.2449719095       -0.4685637947
 H          4.7933674782       -4.4330468331        0.4998060953
 C          3.5021390185       -3.0650767664       -0.5429910281
 H          3.0012891793       -3.9965660760       -0.8168421936
 H          2.8244698884       -2.5240831486        0.1219178582
 C          3.6856204751       -2.2548234277       -1.8264890067
 H          4.2497676468       -2.8435880835       -2.5531542254
 H          2.6971151503       -2.0552661136       -2.2489095042
 C          4.3971006214       -0.9098089660       -1.6277892443
 H          5.4591082309       -1.0690678861       -1.4424896673
 H          4.2834020903       -0.3241514740       -2.5431876789
 H          4.1346307763       -2.6221528322        2.1039277594
 H          5.8562388692       -2.9985051111        2.0266276351
 H          6.1791125747       -0.9971269089        0.5282839637
 H          5.6781898463       -0.6461473975        2.1915875284
 O          3.5864643297        0.3881591629        1.8001568123
 C          2.4750959664        1.1898897466        1.5888437532
 O          1.9840004726        1.6732868991        2.6300153049
 H         -0.0395811042       -0.1553526574        0.7418139120
 C         -0.6006427144        0.2279677779       -0.1022360761
 C         -0.2896638972        1.4866649969       -0.6031624282
 C         -1.0303294373        1.9733892799       -1.6717921176
 C         -2.0270687028        1.2011478126       -2.2443030647
 C         -2.3140423762       -0.0615099617       -1.7610897581
 C         -1.5952600375       -0.5484374113       -0.6759081160
 N         -1.8922306819       -1.8217784350       -0.1624232760
 S         -3.5012371111       -2.2413440822        0.0234810407
 O         -3.5178177868       -3.2039325715        1.1027216114
 O         -4.0320602058       -2.7008285562       -1.2357349312
 C         -4.3281901447       -0.7373472363        0.5114403281
 C         -5.3336578550       -0.2165211406       -0.2772316476
 C         -5.9418965368        0.9677777584        0.1072072773
 C         -5.5331332123        1.6093309319        1.2658306609
 C         -4.5237282836        1.0715049139        2.0498689233
 C         -3.9137453793       -0.1132095742        1.6714112519
 H         -3.1289871752       -0.5580773278        2.2625887787
 H         -4.2061518744        1.5711777938        2.9511143736
 H         -6.0029627229        2.5337785097        1.5622071071
 H         -6.7282699370        1.3872571959       -0.4992133599
 H         -5.6179173059       -0.7467522768       -1.1715051960
 H         -1.3475166756       -2.0793491148        0.6467238904
 H         -3.0713227430       -0.6829146277       -2.2107167800
 H         -2.5849482546        1.5867455791       -3.0837128078
 H         -0.8198917471        2.9536107099       -2.0660475824
 C          0.8165241677        2.2667317402        0.0662521880
 H          0.4697028687        2.5583959842        1.0685267778
 C          1.2217076280        3.5145426219       -0.6906381417
 C          0.4876962387        4.8026962202       -0.4738282675
 C          1.8766625207        4.6323315340        0.0618631609
 H          2.6847811107        5.1692982511       -0.4117536871
 H          2.0053702091        4.5031677471        1.1269813586
 H          0.3436762626        5.4625029106       -1.3160412949
 H         -0.3293741123        4.8005864900        0.2314635403
 H          1.5946188801        3.2947790604       -1.6843070597
 O          2.2449519885        0.8752084742       -2.0125760474
