  62
        -98.94042109
 C          2.4403074118        1.1010804091       -0.0256597560
 C          2.3861803570       -0.2914235308        0.2227378718
 C          3.6618330913       -0.9208986861        0.5884484107
 C          4.7738301348       -0.1705613186        0.6934803936
 C          6.1419575286       -0.6631234984        1.0807278045
 C          6.9464909906       -1.2534314010       -0.0854463333
 C          6.4708917760       -2.6208532376       -0.5775800973
 H          6.3920875319       -3.3035917461        0.2689241285
 H          7.2463839014       -3.0105610831       -1.2398653252
 C          5.1399274633       -2.5911091072       -1.3419562947
 H          5.2272409955       -3.1918763637       -2.2500765365
 H          4.9214689206       -1.5676922120       -1.6556971556
 C          3.9452473300       -3.1314500277       -0.5557207337
 H          4.0914579467       -4.1942548364       -0.3499504225
 H          3.0506125870       -3.0294476693       -1.1758677050
 C          3.6836836454       -2.4083146887        0.7720614266
 H          4.4349894900       -2.6911567640        1.5091856223
 H          2.6994938396       -2.7106041971        1.1392616499
 H          7.9812980000       -1.3521756385        0.2502146616
 H          6.9319733266       -0.5426470935       -0.9147513131
 H          6.0526657210       -1.4045610487        1.8750823134
 H          6.6840260149        0.2013290662        1.4698589674
 O          4.7760549180        1.1712265961        0.4726667844
 C          3.6206425677        1.8345574072        0.0927291073
 O          3.7686561102        3.0590396695       -0.0957728646
 O          1.3309107991       -0.9749861991        0.1485635461
 C          1.1834069843        1.8446881358       -0.4396343143
 C          0.0992424790        1.6370312771        0.5896633575
 C          0.3907582303        1.8912460155        1.9277736948
 C         -0.5655099488        1.7034889346        2.9059021680
 C         -1.8307517155        1.2538819640        2.5707845473
 C         -2.1375060440        1.0115714226        1.2375419760
 C         -1.1777580098        1.2159595758        0.2549152944
 H         -1.4383090880        1.0151641613       -0.7697747123
 N         -3.4357306053        0.6027898519        0.8740248652
 S         -3.6511416004       -0.6171545541       -0.2744593881
 O         -3.0374458831       -1.8482387982        0.1729102759
 O         -3.2530796835       -0.1297701405       -1.5697037284
 C         -5.4280993819       -0.7657064899       -0.2149666365
 C         -6.0067241841       -1.8284830160        0.4518387051
 C         -7.3893319530       -1.9141762886        0.5055048208
 C         -8.1651862729       -0.9391153756       -0.1026184778
 C         -7.5698399443        0.1220567318       -0.7687875423
 C         -6.1884559933        0.2123733999       -0.8276263263
 H         -5.6819582202        1.0128686661       -1.3408762429
 H         -8.1765384024        0.8770883387       -1.2421432323
 H         -9.2406832842       -1.0078502452       -0.0593464601
 H         -7.8547485141       -2.7394479563        1.0199928264
 H         -5.3631828074       -2.5665374729        0.9032874395
 H         -3.9994057997        0.3891644265        1.6873215833
 H         -2.5747862742        1.0937016473        3.3367461212
 H         -0.3226466167        1.8984326845        3.9398593392
 H          1.3849976341        2.2290089096        2.1892735620
 H          1.4489660579        2.9123045818       -0.4482938161
 C          0.7754399952        1.4345349169       -1.8391190105
 C          0.0227403037        2.3886345448       -2.7151730852
 C          1.4565178466        2.0699433228       -3.0123022371
 H          1.6834542190        1.4562711311       -3.8712515336
 H          2.2032978157        2.8220225005       -2.8018569818
 H         -0.7412710074        1.9914942603       -3.3666071321
 H         -0.2053835091        3.3628258732       -2.3097821553
 H          0.5350352181        0.3789784931       -1.9121954202
