  62
        -98.94121217
 C         -1.5055793845       -1.5789698694       -0.2162154606
 C         -2.6731613583       -1.2638833563        0.5210373467
 C         -3.5020571273       -0.1485656852        0.0260134708
 C         -3.1096718663        0.5034176353       -1.0839084234
 C         -3.7644449445        1.6889692503       -1.7407023112
 C         -3.4991097121        3.0106190474       -0.9961425754
 C         -3.5255172190        2.9125516958        0.5276810570
 H         -2.8267168823        2.1389523336        0.8519545683
 H         -3.1682102327        3.8643504975        0.9295304694
 C         -4.9004489567        2.6448209543        1.1356404096
 H         -4.7801467540        2.6212269792        2.2217312806
 H         -5.5656042815        3.4772126170        0.8936001973
 C         -5.5815309061        1.3471996547        0.7009926438
 H         -5.9489133039        1.4270417389       -0.3184928858
 H         -6.4608865890        1.2119059762        1.3378342171
 C         -4.7325474475        0.0900048238        0.8666656023
 H         -5.3756029404       -0.7851987103        0.7113276857
 H         -4.3977857270        0.0210865303        1.9077387617
 H         -4.2330444428        3.7468182923       -1.3276692029
 H         -2.5098985885        3.3700023660       -1.2888140937
 H         -3.3442438020        1.7653144901       -2.7460972237
 H         -4.8303103836        1.5064170707       -1.8444092136
 O         -1.9772444003        0.1662528404       -1.7622187902
 C         -1.1492102422       -0.8671309955       -1.3603651826
 O         -0.1611977603       -1.0367800138       -2.1008281103
 O         -3.0133922147       -1.8876280060        1.5615308619
 C         -0.6100979104       -2.6895292032        0.3107264886
 C          0.6388084870       -2.0333769313        0.8439318296
 C          0.6536973366       -1.5347298308        2.1436633638
 C          1.7447014025       -0.8307315109        2.6190595132
 C          2.8327298953       -0.5844840160        1.7994908229
 C          2.8193140141       -1.0670422304        0.4977935796
 C          1.7421433011       -1.8093993829        0.0348486747
 H          1.7446335260       -2.1679217244       -0.9819920793
 N          3.8887044186       -0.7577999255       -0.3645030991
 S          4.3254638112        0.8592556745       -0.4217125966
 O          4.8087134928        1.0842496270       -1.7664413494
 O          5.2743326200        1.1308408980        0.6309594593
 C          2.8302174746        1.7910148068       -0.1228834510
 C          1.7235815278        1.5520277033       -0.9130368880
 C          0.5615902074        2.2660379562       -0.6695007620
 C          0.5231039990        3.2031550617        0.3507000288
 C          1.6453029376        3.4370582483        1.1302190620
 C          2.8095439615        2.7242659875        0.8942234577
 H          3.7018982000        2.8676624767        1.4817085792
 H          1.6140139999        4.1674323200        1.9225613587
 H         -0.3876704954        3.7501102398        0.5384562826
 H         -0.3088229974        2.0692704183       -1.2754925580
 H          1.7550032224        0.8102210995       -1.6957457223
 H          3.7582312400       -1.1179190446       -1.2994292031
 H          3.6840421053       -0.0184180919        2.1418775812
 H          1.7443273629       -0.4573892126        3.6316385694
 H         -0.2114476563       -1.6920724612        2.7720787082
 H         -1.1567067794       -3.1297659563        1.1548026014
 C         -0.3490731621       -3.7690125359       -0.7177437657
 C          0.2410423182       -5.0726913793       -0.2724579378
 C         -1.1910330311       -5.0081719224       -0.7084892289
 H         -1.4637369704       -5.4520761585       -1.6542777612
 H         -1.9593242647       -5.0855764944        0.0467573610
 H          0.9540742478       -5.5641526722       -0.9166238293
 H          0.4456688255       -5.1915378012        0.7807982787
 H         -0.0537635861       -3.3845552612       -1.6860521634
