  62
        -98.94144126
 C         -2.5050462875       -0.9729170558       -0.4985879959
 C         -3.3864855348       -0.3336359974        0.4140081914
 C         -3.7711544103        1.0442783965        0.0964336379
 C         -3.3033304819        1.6226363034       -1.0240995936
 C         -3.6084734181        3.0173797983       -1.4978093863
 C         -2.7182987902        4.0941703106       -0.8620485747
 C         -3.0240250908        4.4068321804        0.6033254722
 H         -2.4863553945        5.3234551467        0.8535637738
 H         -4.0891992865        4.6113559706        0.7161847034
 C         -2.6022263828        3.3064189569        1.5874398255
 H         -1.8853948419        2.6371083935        1.1036798955
 H         -2.0848898679        3.7571430475        2.4377264789
 C         -3.7587259029        2.4785538094        2.1491329659
 H         -4.4037350068        3.1175343215        2.7563072216
 H         -3.3395434957        1.7062577450        2.7993186146
 C         -4.6194820581        1.7865938097        1.0840913384
 H         -5.2626915353        1.0583118432        1.5838457695
 H         -5.2461763923        2.5173795316        0.5736109537
 H         -1.6737296615        3.7862805543       -0.9570742888
 H         -2.8495016140        5.0106201079       -1.4421022761
 H         -3.4398931399        3.0236891395       -2.5767852365
 H         -4.6564974127        3.2496043343       -1.3068828783
 O         -2.4842413993        0.9713617406       -1.8884472408
 C         -2.0347676117       -0.3170922160       -1.6362039550
 O         -1.2444364186       -0.7377656525       -2.5069315108
 O         -3.8357213669       -0.8974331393        1.4472268733
 C         -2.0637604381       -2.3814689255       -0.1328183959
 C         -0.7332362869       -2.3309027411        0.5806738721
 C         -0.6040320318       -2.7567002677        1.8971139924
 C          0.6085628873       -2.6534146319        2.5573972235
 C          1.7134358974       -2.1144414516        1.9227684836
 C          1.5911839125       -1.6834216027        0.6092313377
 C          0.3823313179       -1.8061828336       -0.0568092639
 H          0.2963114764       -1.4575513542       -1.0758719529
 N          2.7093375300       -1.0911445736       -0.0349949547
 S          3.0014189551        0.4996981607        0.4693584783
 O          2.9841768747        0.5338103075        1.9092340257
 O          2.0971503721        1.4099456637       -0.2049277924
 C          4.6639238698        0.7409438649       -0.1242590713
 C          5.7114058449        0.2552204284        0.6341572307
 C          7.0055694578        0.4053767422        0.1627390422
 C          7.2291418581        1.0327734587       -1.0539128854
 C          6.1672550711        1.5143643542       -1.8042345954
 C          4.8701623334        1.3666226885       -1.3380829948
 H          4.0152294204        1.7331739784       -1.8838669657
 H          6.3431351077        2.0034659431       -2.7488767768
 H          8.2372084962        1.1494058702       -1.4192374695
 H          7.8339930911        0.0337676723        0.7439044164
 H          5.4893858353       -0.2178402053        1.5761507891
 H          2.5603526183       -1.0541985068       -1.0366295907
 H          2.6548981643       -2.0006633258        2.4337170072
 H          0.6910137031       -2.9871442824        3.5806210583
 H         -1.4695579681       -3.1494129440        2.4107672089
 H         -2.8138050298       -2.7400837019        0.5850575953
 C         -2.0231611430       -3.3414197272       -1.3045105899
 C         -2.0924122974       -4.8139709036       -1.0366227624
 C         -3.2570908154       -4.1105916809       -1.6647675959
 H         -3.4668471017       -4.2847598863       -2.7093078666
 H         -4.1399136553       -3.9476533140       -1.0639010759
 H         -1.4999430165       -5.4758956175       -1.6491040547
 H         -2.1864574991       -5.1309044148       -0.0091009865
 H         -1.3933747989       -3.0046615068       -2.1172912084
