  62
        -98.93512768
 C         -0.8614339754       -1.4370614385        0.9182361450
 C         -1.6323149097       -1.1571230891       -0.2354484991
 C         -2.4889400277        0.0453572499       -0.1871298726
 C         -2.4497688057        0.8373121424        0.8972899590
 C         -3.1637553286        2.1414857390        1.1501201695
 C         -4.6391294232        2.2261992111        0.7322478345
 C         -4.8737307094        3.1175990973       -0.4884705036
 H         -5.9048128948        3.4776371149       -0.4657851692
 H         -4.2214076748        3.9900817351       -0.4116376451
 C         -4.6517719165        2.4421845053       -1.8405634302
 H         -5.4612940333        1.7328972527       -2.0272297314
 H         -4.7126960013        3.2153660194       -2.6101527263
 C         -3.3220018880        1.7015963587       -1.9977500845
 H         -2.4991001940        2.2725096732       -1.5663331697
 H         -3.1115911924        1.6150282427       -3.0663885303
 C         -3.3343200314        0.2832732518       -1.4075866110
 H         -4.3626671954       -0.0251018834       -1.1962479752
 H         -2.9485320237       -0.4219606737       -2.1503575748
 H         -5.0332591360        1.2270693695        0.5543068688
 H         -5.1966696943        2.6501407884        1.5690922355
 H         -3.0732851996        2.3110984990        2.2259158669
 H         -2.5933342465        2.9357159811        0.6598331215
 O         -1.6564437319        0.5552163494        1.9709108254
 C         -0.8409845428       -0.5622538096        2.0043785496
 O         -0.1504085172       -0.6579141243        3.0388930318
 H          1.4729684538       -0.4545601254        0.1979451165
 C          1.5942927937       -1.2425383571       -0.5306554269
 C          0.9879566068       -2.4712886330       -0.2981714212
 C          1.1556836321       -3.4830955209       -1.2317774954
 C          1.8853880693       -3.2469735245       -2.3852382840
 C          2.4359774168       -2.0044351232       -2.6400556009
 C          2.2797528626       -0.9870688685       -1.7040339313
 N          2.8176282724        0.2908145636       -1.9146219225
 S          2.0628286134        1.6443979118       -1.2822142776
 O          0.6245568298        1.5215221424       -1.2547747177
 O          2.5889151572        2.7387528970       -2.0730445338
 C          2.7180877707        1.7680288172        0.3681841269
 C          1.8589381533        1.8801771749        1.4423769163
 C          2.3869887664        1.9725539095        2.7201900400
 C          3.7615323564        1.9596289619        2.8987296488
 C          4.6131625087        1.8576140464        1.8085695855
 C          4.0896931736        1.7600059798        0.5297220169
 H          4.7165181639        1.6785742585       -0.3424029870
 H          5.6814480752        1.8494606080        1.9532922711
 H          4.1684041659        2.0279357821        3.8952699397
 H          1.7183548402        2.0367995467        3.5637669905
 H          0.7934032154        1.8734999459        1.2671067695
 H          3.1920452973        0.4556128608       -2.8372813078
 H          2.9716618791       -1.8158102775       -3.5579591276
 H          2.0042948419       -4.0372580104       -3.1110943354
 H          0.6894380020       -4.4420415578       -1.0755896085
 C          0.1469638083       -2.5767127611        0.9506730634
 H          0.7960499772       -2.3470643021        1.8123644865
 C         -0.4277418838       -3.9602033023        1.2034503593
 C         -1.7114391617       -4.1300400538        1.9589869169
 C         -1.6467527944       -4.4774022570        0.5034717679
 H         -1.6702429764       -5.5217989483        0.2276129219
 H         -2.1285728084       -3.8256801143       -0.2069525252
 H         -1.7824876575       -4.9304821888        2.6801537613
 H         -2.2408222661       -3.2327584917        2.2463508199
 H          0.3521148779       -4.6849726856        1.4170426112
 O         -1.6171411066       -1.8697582105       -1.2725941213
