  62
        -98.94452536
 C          0.8525783113        1.3231579423        0.3534724059
 C          1.2297955403        0.4987865312       -0.7351857304
 C          2.2964694244       -0.4747966018       -0.4545762481
 C          2.7873371088       -0.6020187653        0.7901979853
 C          3.8699959009       -1.5512568078        1.2281657286
 C          5.2903093272       -1.0236685575        0.9821493305
 C          5.7361783509       -1.0199489664       -0.4807761581
 H          6.8131270497       -0.8404838563       -0.4871474545
 H          5.5688933940       -2.0067387146       -0.9138021078
 C          5.0549058905        0.0466844751       -1.3497228769
 H          4.6022936400        0.8062830935       -0.7082383500
 H          5.8059601385        0.5515855381       -1.9615110171
 C          3.9878136420       -0.4945225141       -2.3018711941
 H          4.4524019166       -1.1566042529       -3.0362244477
 H          3.5498929852        0.3496551414       -2.8408584854
 C          2.8488114203       -1.2548121966       -1.6092989704
 H          2.0416087494       -1.3963385865       -2.3331688136
 H          3.1979773873       -2.2336337851       -1.2802379417
 H          5.3636398747       -0.0122522003        1.3880372646
 H          5.9770894116       -1.6588797070        1.5462032227
 H          3.7387531073       -1.6994107831        2.3018870586
 H          3.7523573943       -2.5111195918        0.7243621099
 O          2.3254155579        0.1375773674        1.8317965110
 C          1.3884534328        1.1354623679        1.6317130729
 O          1.1112977335        1.7857511561        2.6592753506
 H         -1.4845373723        0.4648763067       -1.0270692327
 C         -2.0938888609        0.9828731348       -0.3022358761
 C         -1.5627613218        2.0337867727        0.4327989550
 C         -2.3787606332        2.6976450614        1.3421512663
 C         -3.6995544846        2.3244611650        1.5088355152
 C         -4.2242799680        1.2702401947        0.7844996606
 C         -3.4146229418        0.5944637543       -0.1222723986
 N         -3.9259130117       -0.4867193243       -0.8528156075
 S         -2.9548417380       -1.7887625076       -1.2311222573
 O         -2.1924967274       -1.5259120440       -2.4234198876
 O         -3.8819421864       -2.8997026269       -1.3235003203
 C         -1.8738250413       -2.0518542439        0.1649242918
 C         -0.5671336211       -2.4210070214       -0.0746219734
 C          0.2585764213       -2.7066695742        1.0008352832
 C         -0.2278867086       -2.5979170924        2.2931985809
 C         -1.5426208618       -2.2209640697        2.5186707111
 C         -2.3792612731       -1.9574132923        1.4467207614
 H         -3.4090883674       -1.6795802472        1.6001004575
 H         -1.9181429488       -2.1355728441        3.5256114014
 H          0.4216473006       -2.8081496635        3.1282043063
 H          1.2779552775       -3.0083683874        0.8253272450
 H         -0.2185597638       -2.4675231056       -1.0941218031
 H         -4.8579422024       -0.7768453666       -0.5952097530
 H         -5.2524184407        0.9691058803        0.9154320990
 H         -4.3232064921        2.8510096310        2.2147258051
 H         -1.9661523022        3.5057271212        1.9274042693
 C         -0.1321883285        2.4749966074        0.2393376366
 H          0.1154831684        3.1550723412        1.0665905035
 C         -0.0074529528        3.2469887169       -1.0610715298
 C         -0.4216485079        4.6858232345       -1.0981345699
 C          1.0297411970        4.3206492909       -1.1815167861
 H          1.5422918456        4.4372311077       -2.1245961357
 H          1.6536753064        4.5112245982       -0.3200323827
 H         -0.9105802271        5.0566796150       -1.9858507632
 H         -0.7785854835        5.1301452116       -0.1814512294
 H         -0.2030736308        2.6426941293       -1.9372969352
 O          0.7314955727        0.5567050122       -1.8898866522
