  62
        -98.94267817
 C         -1.2377046909       -1.5612140547        0.5628468471
 C         -2.1873830384       -1.2510693264       -0.4377891583
 C         -3.1714909170       -0.2054342416       -0.1032563687
 C         -3.1026070391        0.3995582103        1.0951883273
 C         -3.9259808142        1.5575684203        1.5860931237
 C         -3.2066006421        2.8847652970        1.2849158877
 C         -3.5265552712        3.4925815819       -0.0792502766
 H         -4.5601082997        3.8467134794       -0.0857824408
 H         -2.8763533900        4.3616776236       -0.2041791769
 C         -3.3162008892        2.5530992552       -1.2692641788
 H         -3.1989913423        3.1679919863       -2.1642533165
 H         -2.3802574247        2.0057485172       -1.1345806509
 C         -4.4843560731        1.5788731172       -1.4837548054
 H         -5.3353693367        1.9108545578       -0.8887904531
 H         -4.8006503279        1.6218408283       -2.5281182455
 C         -4.1807934032        0.1054861057       -1.1744228912
 H         -5.1176166461       -0.4063724532       -0.9293127731
 H         -3.7838168206       -0.3780968241       -2.0727072396
 H         -2.1281555937        2.7134026382        1.3533941503
 H         -3.4732126103        3.6135825174        2.0535214836
 H         -4.9203456994        1.5407816337        1.1497419628
 H         -4.0129308319        1.4447779435        2.6687993720
 O         -2.1801834112        0.0600902943        2.0367927040
 C         -1.2124064107       -0.8938383748        1.7859498201
 O         -0.3942292296       -1.0572921565        2.7156754512
 H          0.4182037145        0.0289082745       -0.2216146155
 C          0.9353424732       -0.6116771267       -0.9174102846
 C          0.7580929483       -1.9853405715       -0.8422108010
 C          1.4139860435       -2.7854860978       -1.7697350158
 C          2.2082569856       -2.2110141932       -2.7477538612
 C          2.3789971810       -0.8396748316       -2.8177742131
 C          1.7294041583       -0.0313085696       -1.8918249052
 N          1.8468225471        1.3651377290       -1.9249281837
 S          1.7869365938        2.2603346736       -0.5150944206
 O          0.4536619678        2.2688790410        0.0316967859
 O          2.3185463973        3.5509327907       -0.8989133550
 C          2.9359579700        1.4506830037        0.5833306628
 C          4.2803837081        1.5784594855        0.2872631512
 C          5.2107692877        0.9318757313        1.0827606715
 C          4.7837107181        0.1638779210        2.1561074412
 C          3.4331573980        0.0488640653        2.4430724405
 C          2.4966872319        0.6976420020        1.6521740136
 H          1.4417027050        0.6158025377        1.8636129511
 H          3.0890564166       -0.5450742978        3.2749713333
 H          5.5058059337       -0.3453011780        2.7746320528
 H          6.2622576345        1.0256507229        0.8644798871
 H          4.5714412859        2.1953264161       -0.5473610856
 H          2.5189165533        1.7301897467       -2.5825799411
 H          2.9949978368       -0.3975075354       -3.5854283649
 H          2.7056217936       -2.8428217680       -3.4678427460
 H          1.2953148774       -3.8561330229       -1.7326567837
 C         -0.1120204997       -2.5340679089        0.2664149054
 H          0.5006151244       -2.5757059909        1.1802023867
 C         -0.6469589996       -3.9209238398       -0.0241987725
 C          0.1384085108       -5.1343312471        0.3713119021
 C         -1.1069930907       -4.7711000196        1.1207772164
 H         -1.9887841772       -5.3799069667        0.9894274212
 H         -1.0060334918       -4.3590947266        2.1146657127
 H          0.1105099669       -5.9990897013       -0.2744445510
 H          1.0860127433       -4.9800070669        0.8650869972
 H         -1.2259095817       -3.9586538498       -0.9392878672
 O         -2.2038543208       -1.8044796109       -1.5691017213
