  62
        -98.94027728
 C         -2.0055519102        1.4218395812        0.1928920331
 C         -1.7578959698        0.0464909735        0.4258274973
 C         -2.9512023239       -0.7974356316        0.5824459031
 C         -4.1782155862       -0.2540531248        0.4992180798
 C         -5.4842792057       -0.9836859597        0.6583830874
 C         -5.9722798620       -1.6743107988       -0.6225664203
 C         -5.1895143661       -2.9240573966       -1.0281848501
 H         -5.1303324668       -3.6062337232       -0.1795161924
 H         -5.7674870241       -3.4244351593       -1.8077494258
 C         -3.7788027448       -2.6423485601       -1.5645717871
 H         -3.6980410680       -1.5885379176       -1.8416194335
 H         -3.6115033365       -3.2239361024       -2.4740446494
 C         -2.6499963425       -2.9868289612       -0.5929405237
 H         -1.7007175062       -2.7086443109       -1.0585557730
 H         -2.6349311733       -4.0648007394       -0.4169655296
 C         -2.7437717854       -2.2711647862        0.7606983401
 H         -3.5471534856       -2.7006178213        1.3587122905
 H         -1.7980370453       -2.4154916546        1.2882515033
 H         -7.0140776432       -1.9609703001       -0.4613740913
 H         -5.9505615512       -0.9497921734       -1.4401330229
 H         -5.3994938070       -1.7183148739        1.4596485906
 H         -6.2252629576       -0.2357334643        0.9489899785
 O         -4.3746624083        1.0711338613        0.2655632587
 C         -3.3022317695        1.9292198214        0.0777973980
 O         -3.6281230356        3.1044525437       -0.1839541479
 O         -0.6126201980       -0.4634649639        0.5042354828
 C         -0.8706368513        2.4092386427       -0.0202959566
 C          0.1652275685        1.8079633871       -0.9396147757
 C         -0.2495923074        1.3172654383       -2.1756384067
 C          0.6478040999        0.7287420548       -3.0446711047
 C          1.9879492696        0.6324430704       -2.7108850505
 C          2.4150330769        1.1297611532       -1.4884375456
 C          1.5087783622        1.7166759941       -0.6122481583
 H          1.8597044407        2.0772088277        0.3421466685
 N          3.7841665669        1.0487082616       -1.1564249169
 S          4.4711563524       -0.4587385382       -0.9113956752
 O          5.8944861747       -0.2270066431       -0.8067619390
 O          4.0434329426       -1.3456632537       -1.9622458657
 C          3.8517793650       -1.0100448268        0.6693294283
 C          4.7224046041       -1.0945790542        1.7389620202
 C          4.2316935304       -1.4811380198        2.9754193627
 C          2.8817790857       -1.7630800688        3.1245493681
 C          2.0219041903       -1.6685240973        2.0418645701
 C          2.5069094619       -1.2919370699        0.7996704088
 H          1.8418816627       -1.2037190583       -0.0439749713
 H          0.9666249769       -1.8639633912        2.1442800059
 H          2.4968487651       -2.0557704431        4.0889668774
 H          4.8996745048       -1.5560332391        3.8185416472
 H          5.7620575350       -0.8589334826        1.5779629369
 H          4.0473847931        1.6551508591       -0.3918323241
 H          2.6994942072        0.1620576468       -3.3692248395
 H          0.3041900096        0.3431640407       -3.9931095000
 H         -1.2967163947        1.3898694890       -2.4394548619
 H         -1.3312295923        3.2610945549       -0.5478101151
 C         -0.2826244888        2.9639807981        1.2696897087
 C         -1.0708879046        2.9700625357        2.5445534444
 C          0.1199141041        2.0723284799        2.4052620392
 H          1.0129184088        2.3181624232        2.9617353849
 H         -0.0427612027        1.0133871443        2.2846770740
 H         -0.9948011908        3.8346434155        3.1869657175
 H         -2.0553015182        2.5252663728        2.5290229711
 H          0.3371853292        3.8373602595        1.0900228594
