  62
        -98.94417124
 C          0.8100602340        1.1984394240        0.2832958291
 C          1.5265342052        0.3995468185        1.2096880243
 C          2.4227250584       -0.6122249758        0.6351822041
 C          2.4455698287       -0.7856012067       -0.6984155663
 C          3.3790079765       -1.7061655938       -1.4283120889
 C          4.6763606028       -0.9797320283       -1.8140542611
 C          5.3225581421       -0.2062981257       -0.6644389920
 H          4.6663177260        0.6175760283       -0.3742052294
 H          6.2427048185        0.2389675361       -1.0490851947
 C          5.6450368810       -1.0563478307        0.5725406956
 H          6.6503894836       -0.8057625308        0.9175325958
 H          5.6490827803       -2.1134979767        0.3048630518
 C          4.7007802259       -0.8377082578        1.7562841364
 H          4.6254660883        0.2309922575        1.9737841965
 H          5.1388699598       -1.3184904420        2.6350840210
 C          3.2827295963       -1.3973229278        1.5848846354
 H          2.7835951690       -1.3438137221        2.5570292604
 H          3.3401678520       -2.4444528481        1.2816340081
 H          4.4516230956       -0.2725840489       -2.6158005287
 H          5.3831989998       -1.7166720206       -2.1995628441
 H          2.8849878689       -2.0470203349       -2.3389862608
 H          3.6062699531       -2.5639427349       -0.7987475295
 O          1.6491404941       -0.0883407756       -1.5451503253
 C          0.8282539803        0.9341449171       -1.0872095902
 O          0.1845134274        1.5020012893       -1.9879971509
 O          1.4305108199        0.5358526954        2.4594142110
 C         -0.0538219260        2.3173279079        0.8356280874
 C         -1.4158237946        2.3009232433        0.1887844827
 C         -1.9974299784        3.3984630682       -0.4307638102
 C         -3.2530551039        3.2907004682       -1.0035701398
 C         -3.9487774100        2.0972344002       -0.9738073461
 C         -3.3725623966        0.9898858803       -0.3587271448
 C         -2.1232851066        1.1054960058        0.2257205812
 H         -1.6805619402        0.2505136518        0.7154389420
 N         -4.0278128907       -0.2443753873       -0.3578431727
 S         -3.6253129342       -1.4963510962        0.6529642663
 O         -4.6750465416       -2.4700203469        0.4386270305
 O         -3.4513676719       -1.0550857440        2.0176072261
 C         -2.0983866956       -2.1460403828        0.0084630271
 C         -1.9839093258       -2.3488812272       -1.3519353372
 C         -0.8198496867       -2.9121797376       -1.8486465881
 C          0.2005201465       -3.2690275960       -0.9811533685
 C          0.0734283123       -3.0525877238        0.3816815264
 C         -1.0859902474       -2.4848209775        0.8834679189
 H         -1.2180741289       -2.2898947443        1.9366035410
 H          0.8699011045       -3.3197821602        1.0572766201
 H          1.1008456108       -3.7188401025       -1.3679631137
 H         -0.7118808378       -3.0715316167       -2.9095008295
 H         -2.7981529763       -2.0647735720       -1.9977439019
 H         -4.9726301657       -0.2656557548       -0.7064485802
 H         -4.9228887554        2.0139442542       -1.4305903640
 H         -3.6944248531        4.1498529588       -1.4857529991
 H         -1.4632569943        4.3324564973       -0.4860595399
 H         -0.1889658527        2.0597133972        1.9005187160
 C          0.6159067699        3.6839426610        0.8010891386
 C          2.1087635811        3.8158655843        0.7783478820
 C          1.3048708242        4.1995197786       -0.4256347080
 H          1.2114393477        5.2488215169       -0.6644133452
 H          1.3288028780        3.5546467407       -1.2899768217
 H          2.5629864979        4.5980253042        1.3681471331
 H          2.6918488570        2.9072297678        0.7365377925
 H          0.0830398746        4.4129575094        1.4039542330
