  62
        -98.95138406
 C         -1.8255315949       -1.2543246862       -0.2882826318
 C         -2.9165388618       -0.5716632086        0.2967472055
 C         -3.2307955365        0.7398308747       -0.2784590797
 C         -2.5055558944        1.2074040703       -1.3110433813
 C         -2.6893676345        2.5366030932       -1.9905063673
 C         -1.9714085659        3.6856590557       -1.2688144445
 C         -2.6425140199        4.1576230177        0.0218125116
 H         -2.1822617691        5.1103559644        0.2916163990
 H         -3.7012155144        4.3453800757       -0.1633304683
 C         -2.4847216546        3.1880757659        1.2015402421
 H         -1.6580303952        2.5024402774        0.9971246948
 H         -2.2089589569        3.7496103796        2.0979824887
 C         -3.7424160493        2.3865053675        1.5403788778
 H         -4.5239470548        3.0653570777        1.8904947648
 H         -3.4996263092        1.7024628139        2.3579385141
 C         -4.3028857773        1.5561181792        0.3783738930
 H         -5.0477426423        0.8648809195        0.7812145232
 H         -4.7864199120        2.2070231284       -0.3496824199
 H         -1.9214703118        4.5301695325       -1.9605123164
 H         -0.9484912405        3.3709826591       -1.0448821419
 H         -3.7515246213        2.7654866014       -2.0825411090
 H         -2.2642706476        2.4377067492       -2.9916117447
 O         -1.4976378541        0.4975428832       -1.8794699399
 C         -1.0984258866       -0.7172084597       -1.3498493671
 O         -0.1087960340       -1.2245805955       -1.9146147877
 O         -3.5866931205       -1.0324489443        1.2616803314
 C         -1.3525765263       -2.5612498892        0.3208916418
 C          0.0866357287       -2.4206170790        0.7547885830
 C          1.0330817169       -3.4275961660        0.6108795292
 C          2.3468741254       -3.2179666716        0.9949284660
 C          2.7513917391       -1.9962148207        1.5013131443
 C          1.8091352237       -0.9870436111        1.6589955558
 C          0.4868880378       -1.2168861063        1.3209845196
 H         -0.2302162465       -0.4205663803        1.4579523300
 N          2.1615698812        0.2979822359        2.1281555434
 S          2.0312993700        1.5332529592        0.9965330035
 O          2.5088022274        2.7193267686        1.6754479773
 O          0.6896048735        1.5914238151        0.4806279545
 C          3.1998552499        1.0678136028       -0.2683441723
 C          4.4818573575        1.5792590427       -0.1917162080
 C          5.4289638198        1.1612204080       -1.1116143960
 C          5.0823043412        0.2321724222       -2.0815658855
 C          3.7932078992       -0.2733641355       -2.1418089234
 C          2.8369882695        0.1434722697       -1.2271044350
 H          1.8265743630       -0.2350479512       -1.2634351713
 H          3.5151811295       -0.9951779540       -2.8929944053
 H          5.8196366487       -0.0993307782       -2.7956515130
 H          6.4311482746        1.5562452152       -1.0676268492
 H          4.7024370658        2.3010640287        0.5783047309
 H          3.0824226393        0.3377372743        2.5447784416
 H          3.7827401302       -1.8206897739        1.7683166368
 H          3.0702318095       -4.0099360803        0.8756972629
 H          0.7429941056       -4.3759903428        0.1887840716
 H         -1.9755418678       -2.7128858863        1.2155359460
 C         -1.5804880741       -3.7146381233       -0.6342359977
 C         -1.8784034824       -5.0875903373       -0.1115027921
 C         -2.9610678776       -4.2826421151       -0.7630705379
 H         -3.3088576519       -4.5764787773       -1.7419762296
 H         -3.7307326244       -3.8547037209       -0.1373124231
 H         -1.4849250828       -5.9391544925       -0.6458928568
 H         -1.9214032413       -5.2176091547        0.9593257073
 H         -0.9892829957       -3.6253380674       -1.5387768863
