  62
        -98.94707421
 C          1.2160189324        0.7917910742        0.6806125722
 C          2.0263350336        0.7439839192       -0.4786640059
 C          2.7397911051       -0.5197364751       -0.7108646573
 C          2.5357165310       -1.5560237403        0.1218495836
 C          3.2265823643       -2.8847238535        0.0235008129
 C          4.5214248128       -2.9029557407        0.8483101093
 C          5.4333398398       -1.7029885259        0.5928080041
 H          4.9352098434       -0.7965485011        0.9439239741
 H          6.3272801527       -1.8379371332        1.2053673170
 C          5.8422775697       -1.5182816928       -0.8750759399
 H          5.6723566589       -2.4438003580       -1.4263445822
 H          6.9128378415       -1.3071494115       -0.9171441751
 C          5.1326332993       -0.3668985904       -1.5898308861
 H          5.2220830189        0.5447908451       -0.9939607241
 H          5.6439465384       -0.1892445420       -2.5396515458
 C          3.6481948644       -0.5908498547       -1.9059341795
 H          3.3235153383        0.2130620225       -2.5735780090
 H          3.5201325843       -1.5407210121       -2.4299539195
 H          5.0592808684       -3.8259409444        0.6242387489
 H          4.2559982633       -2.9123355430        1.9079320932
 H          2.5497126433       -3.6522667703        0.4032032755
 H          3.4438338532       -3.0963725077       -1.0218296223
 O          1.7007278745       -1.4935172403        1.1896296925
 C          1.0218032378       -0.3239109541        1.4932808304
 O          0.2852322597       -0.4056262044        2.4977643840
 H         -1.3447257286        0.3273933802        0.1092520507
 C         -1.3918197387        1.2393009429       -0.4657076684
 C         -0.5468500939        2.2900319780       -0.1280295232
 C         -0.6164779714        3.4643714431       -0.8632661966
 C         -1.4841380141        3.5586448260       -1.9387305377
 C         -2.2845684993        2.4926593100       -2.3040020294
 C         -2.2371929096        1.3179979548       -1.5583842863
 N         -3.0537093247        0.2300214086       -1.8863301913
 S         -2.7434097739       -1.3302474459       -1.3822417169
 O         -1.3320318449       -1.6379159206       -1.3532496067
 O         -3.5497030914       -2.1441513037       -2.2687310772
 C         -3.4578927771       -1.3805984729        0.2471019149
 C         -4.8064910861       -1.0991310250        0.3566878134
 C         -5.3971960457       -1.1203255043        1.6087947732
 C         -4.6329039769       -1.4195164267        2.7273254314
 C         -3.2827013130       -1.7043279635        2.6006634532
 C         -2.6871329489       -1.6885396148        1.3486459306
 H         -1.6346160700       -1.8942913437        1.2245194732
 H         -2.6779735632       -1.9282925147        3.4648983534
 H         -5.0903755468       -1.4311696491        3.7040777984
 H         -6.4477594200       -0.9011440674        1.7110452190
 H         -5.3640619306       -0.8763556488       -0.5376554420
 H         -3.5192609995        0.2788225870       -2.7792773026
 H         -2.9380382047        2.5611119151       -3.1601073337
 H         -1.5232791236        4.4718373067       -2.5131426241
 H          0.0202211027        4.2961142767       -0.6111293918
 C          0.4231408550        2.0484128644        1.0036477047
 H         -0.1556815088        1.8194379587        1.9100628402
 C          1.3442846644        3.2143783037        1.2883365337
 C          0.8693456576        4.3530452636        2.1386427878
 C          1.8847375567        3.3901459537        2.6745220134
 H          2.9045230729        3.7249596221        2.7914400697
 H          1.5714238308        2.6772910621        3.4235781623
 H         -0.1353610142        4.2985365339        2.5293424045
 H          1.1936430993        5.3523195361        1.8908035567
 H          2.0096477284        3.4329140405        0.4614500252
 O          2.1546543542        1.7071639641       -1.2798554248
