  62
        -98.93716843
 C         -1.8235796143       -0.4622642595        0.1344051731
 C         -2.9090640817       -0.6159801941        1.0245262169
 C         -4.2612972674       -0.6337740549        0.4334443804
 C         -4.3836353648       -0.5107616803       -0.9017055757
 C         -5.6480520024       -0.4537778843       -1.7170012839
 C         -6.3559712859        0.9075898546       -1.6173103104
 C         -6.4325614152        1.4929044349       -0.2094691913
 H         -5.4228541213        1.5912343574        0.1935760171
 H         -6.8477027828        2.5010272754       -0.2909339294
 C         -7.2978664588        0.7102479661        0.7753098830
 H         -8.3181120650        0.6538341939        0.3891605671
 H         -7.3270115923        1.2814015419        1.7069114338
 C         -6.8233068749       -0.7070225270        1.1020913319
 H         -7.0634582937       -1.3958655103        0.2967579047
 H         -7.3861279876       -1.0447963364        1.9773213002
 C         -5.3462188347       -0.8165937576        1.4675320868
 H         -5.1213851731       -0.1030392135        2.2686744540
 H         -5.1693355555       -1.8058545254        1.9071772830
 H         -7.3625983126        0.8040847068       -2.0257651413
 H         -5.8094160660        1.6179896297       -2.2423664310
 H         -6.3152319915       -1.2602201479       -1.4276061606
 H         -5.3579960065       -0.6185334290       -2.7569693034
 O         -3.3040672368       -0.3718672451       -1.7238999686
 C         -2.0081309373       -0.3450966236       -1.2428130259
 O         -1.1322702245       -0.2160873094       -2.1184007326
 O         -2.7620693360       -0.7244378890        2.2733050140
 C         -0.4134122946       -0.4368934634        0.6896708315
 C          0.3008459034        0.8426746813        0.3288633757
 C         -0.4046249802        2.0423460192        0.2897793164
 C          0.2280263840        3.2262535798       -0.0346373650
 C          1.5858588580        3.2460537874       -0.2997890661
 C          2.3058639426        2.0603942371       -0.2396768256
 C          1.6624931290        0.8685227774        0.0657689884
 H          2.2404904299       -0.0400292199        0.1038762911
 N          3.6860016613        2.0424981465       -0.4957734118
 S          4.6908251445        1.1730006807        0.5236786994
 O          4.1695915085        1.1258133937        1.8697264042
 O          5.9922758036        1.7886570183        0.3689792828
 C          4.7546852937       -0.4656625388       -0.1685629320
 C          4.7705016195       -0.6196622436       -1.5407136359
 C          4.8737904250       -1.8968192475       -2.0684697260
 C          4.9695273847       -2.9911577078       -1.2219597449
 C          4.9579457048       -2.8190603124        0.1535249768
 C          4.8493300785       -1.5444436758        0.6879258027
 H          4.8232092472       -1.3667311232        1.7510910876
 H          5.0309193779       -3.6704861691        0.8115278717
 H          5.0514337666       -3.9837324365       -1.6362173397
 H          4.8793024497       -2.0349383211       -3.1377408488
 H          4.6922641912        0.2511553282       -2.1698075833
 H          4.0843137950        2.9428458986       -0.7210039268
 H          2.0832056113        4.1711302212       -0.5495318650
 H         -0.3384943865        4.1446876511       -0.0731075658
 H         -1.4636071026        2.0344896348        0.5092002051
 H         -0.5285663722       -0.4612640607        1.7845778469
 C          0.3347267001       -1.6806510862        0.2530303312
 C          1.3557549144       -2.3144276857        1.1482666055
 C          0.0304315863       -2.9798583686        0.9350650942
 H         -0.0067528397       -3.8793700540        0.3394788869
 H         -0.6905220703       -2.9576277121        1.7393188544
 H          2.2293322501       -2.7582702382        0.6950168518
 H          1.5440567787       -1.8469893399        2.1034392973
 H          0.5067371205       -1.7039647879       -0.8174068112
