  62
        -98.93327399
 C         -1.8440269985       -0.6801521049        0.0424739182
 C         -2.4042939340        0.6127185302        0.2005386801
 C         -3.8158352914        0.7803768700       -0.1803136618
 C         -4.4950840423       -0.2749273210       -0.6602346064
 C         -5.9225490304       -0.3328685383       -1.1435757699
 C         -6.9824388546        0.3984181538       -0.3080445832
 C         -6.7118165280        0.4288823550        1.2032870026
 H         -5.9021893407       -0.2588948817        1.4530798063
 H         -7.6043199115        0.0868072971        1.7304699344
 C         -6.3696257294        1.8282554013        1.7206161469
 H         -6.5534349521        1.8597915101        2.7972864023
 H         -7.0441701734        2.5489601179        1.2532240239
 C         -4.9261033708        2.2771018240        1.4955705897
 H         -4.2545076432        1.7074333841        2.1436893725
 H         -4.8478485743        3.3243746029        1.7977567321
 C         -4.4062553284        2.1407932605        0.0551310939
 H         -3.5861632709        2.8524707480       -0.0747834371
 H         -5.1843460104        2.3726240097       -0.6682823795
 H         -7.9335381874       -0.1021091036       -0.4972148649
 H         -7.0892320679        1.4204145700       -0.6689677667
 H         -6.1631923067       -1.3976050506       -1.1899591475
 H         -5.9497039099        0.0483304037       -2.1684803261
 O         -3.9179774831       -1.4988351732       -0.8050778706
 C         -2.5924331487       -1.7416516252       -0.4661201665
 O         -2.2368645032       -2.9166780267       -0.6662937745
 O         -1.7476008151        1.5928332791        0.6453511117
 C         -0.3913071420       -0.8487857388        0.4528514551
 C          0.5211767604       -0.6289485268       -0.7264032392
 C          0.3712572093       -1.3686505981       -1.8966072239
 C          1.2070760132       -1.1481601818       -2.9751676661
 C          2.2080713915       -0.1946786269       -2.9080944040
 C          2.3597314688        0.5564356902       -1.7483211839
 C          1.5199294511        0.3320935195       -0.6642493915
 H          1.6280163358        0.9432786555        0.2190915114
 N          3.3509004110        1.5405034841       -1.6700655062
 S          4.0613999277        1.9720395125       -0.2282470369
 O          3.1694699533        2.7870505698        0.5571326570
 O          5.3051291226        2.5985985161       -0.6228464894
 C          4.4092405199        0.4469678616        0.6309496162
 C          5.0253554241       -0.5825435625       -0.0531380972
 C          5.3218075238       -1.7544957231        0.6237436118
 C          5.0079331514       -1.8748972328        1.9687748275
 C          4.3950141810       -0.8305677414        2.6434350145
 C          4.0891497442        0.3414850019        1.9691180102
 H          3.6007504220        1.1728880183        2.4524536304
 H          4.1475293434       -0.9253909202        3.6885413578
 H          5.2381714040       -2.7881621197        2.4937443341
 H          5.7955525893       -2.5696070501        0.1011186958
 H          5.2673019041       -0.4593249203       -1.0959677006
 H          3.9866711305        1.5875483515       -2.4514032079
 H          2.8580828582       -0.0209556005       -3.7519375885
 H          1.0806479701       -1.7272405961       -3.8774350985
 H         -0.4083658882       -2.1133826620       -1.9478236271
 H         -0.2067842618       -0.0275570116        1.1639691460
 C         -0.1233469850       -2.1563695617        1.1862456841
 C          0.7687687214       -3.2381345564        0.6621999514
 C          1.2193533707       -2.3922225558        1.8120622105
 H          1.2624018934       -2.8309959804        2.7970782859
 H          1.9868428036       -1.6572563524        1.6198157966
 H          0.4723597171       -4.2587043234        0.8496540563
 H          1.2447929777       -3.0922901912       -0.2939775101
 H         -0.9881691497       -2.4854709698        1.7530832654
