  62
        -98.93868230
 C         -1.3076705003       -1.3542547098        0.6834795309
 C         -2.2730019002       -1.2311864802       -0.3411274092
 C         -3.2162862202       -0.0955085101       -0.2345935198
 C         -3.0643727402        0.7884234404        0.7684880498
 C         -3.8748430901        2.0236216706        1.0670587991
 C         -3.5992837699        3.1885806201        0.1044283486
 C         -3.5611016499        2.8070886694       -1.3721591512
 H         -2.7847088999        2.0571249993       -1.5329732408
 H         -3.2744495498        3.6971957591       -1.9383810216
 C         -4.8804013099        2.2912523193       -1.9408597711
 H         -4.7498175998        2.1888232687       -3.0212242510
 H         -5.6619785498        3.0349550194       -1.7714866515
 C         -5.3549186000        0.9425547096       -1.3932545105
 H         -6.1210250000        0.5647458793       -2.0764066903
 H         -5.8348287301        1.0527851400       -0.4243341505
 C         -4.2671626201       -0.1240874605       -1.3188598699
 H         -3.7293153100       -0.1591001410       -2.2732345698
 H         -4.7471632702       -1.1057217704       -1.2270920894
 H         -2.6324458299        3.6280786602        0.3599231684
 H         -4.3650215799        3.9500482203        0.2629214982
 H         -4.9333445801        1.7794123207        1.0747096592
 H         -3.6024219901        2.3353431911        2.0779320890
 O         -2.0679179302        0.6677068708        1.6932352399
 C         -1.1822816903       -0.3869081693        1.6840521404
 O         -0.3394387703       -0.3634499389        2.6033962505
 H          1.9956564897       -1.2973510797        1.3577697610
 C          1.9506628497       -1.5297642702        0.3015994211
 C          0.8288362297       -2.1764990903       -0.2010565986
 C          0.7651619197       -2.4359310410       -1.5653648985
 C          1.8038695398       -2.0599959914       -2.3993718986
 C          2.9235989198       -1.4216245313       -1.8945964389
 C          2.9909027198       -1.1518253206       -0.5346788490
 N          4.1208274598       -0.4703662205       -0.0218944492
 S          4.1978207299        1.1558956493       -0.4174535800
 O          4.2462408100        1.2786511586       -1.8512931701
 O          5.3252760099        1.6876596196        0.3126923198
 C          2.6800979400        1.8472429197        0.2132875696
 C          2.6836894499        2.4381651403        1.4607540193
 C          1.4903778099        2.9067772507        1.9844057990
 C          0.3179673300        2.7661367304        1.2593640790
 C          0.3301367000        2.1653426298        0.0107504093
 C          1.5205300400        1.6973695895       -0.5206855804
 H          1.5635710600        1.2242525290       -1.4888433902
 H         -0.5862723500        2.0466197996       -0.5463695007
 H         -0.6140656600        3.1126655207        1.6770654388
 H          1.4735144799        3.3692763711        2.9581626188
 H          3.6184901599        2.5258698405        1.9912850293
 H          4.2093573597       -0.5594989400        0.9815654208
 H          3.7322296499       -1.1061470817       -2.5334553090
 H          1.7403250899       -2.2650964519       -3.4573325885
 H         -0.1158689203       -2.9055155111       -1.9724215883
 C         -0.3055848704       -2.4982478298        0.7400758315
 H          0.0977960396       -2.4850959193        1.7615951715
 C         -0.9243838605       -3.8569911599        0.4889149321
 C         -0.1546006706       -5.0822366797        0.8771918227
 C         -1.3709089306       -4.6828287093        1.6561172725
 H         -2.2675680306       -5.2755306893        1.5540071627
 H         -1.2312105906       -4.2717845388        2.6455976223
 H          0.8116239294       -4.9398697996        1.3377409727
 H         -0.2133181906       -5.9515365900        0.2405485231
 H         -1.5295731404       -3.9031918103       -0.4059914779
 O         -2.3773706902       -2.0245023706       -1.3131081589
