  62
        -98.94951553
 C          1.5546969544        0.9214773437       -0.7114309541
 C          1.3692086837        1.7219436750        0.4410697761
 C          0.2969679587        2.7249092443        0.3586107045
 C         -0.4556536728        2.7969728453       -0.7536843315
 C         -1.5762418424        3.7722160862       -0.9738295806
 C         -2.9345204065        3.2097035491       -0.5350537142
 C         -2.9370019158        2.6031019838        0.8683040991
 H         -3.9618535468        2.2921254670        1.0868307915
 H         -2.3251281135        1.6980134579        0.8855711669
 C         -2.4439804463        3.5471010592        1.9731470104
 H         -3.1140255676        3.4569655534        2.8308214215
 H         -2.4898997180        4.5822777164        1.6311730233
 C         -1.0329231743        3.2348489556        2.4758556166
 H         -0.9519616245        2.1631323189        2.6786852901
 H         -0.8817305188        3.7629419955        3.4215845864
 C          0.1127558051        3.6368977628        1.5380398408
 H         -0.0249396319        4.6703732156        1.2107585615
 H          1.0447793429        3.5776084594        2.1081079894
 H         -3.2399685023        2.4361537700       -1.2438182156
 H         -3.6686571012        4.0168285126       -0.5811576066
 H         -1.6191069948        4.0038757930       -2.0398822665
 H         -1.3595403107        4.6862445404       -0.4237532139
 O         -0.2848618263        1.9706994632       -1.8181507171
 C          0.7165648897        1.0115792493       -1.8213380946
 O          0.7580152889        0.3148554854       -2.8554463923
 O          2.0779374484        1.6243742667        1.4772254167
 C          2.6427622306       -0.1387383965       -0.7361550788
 C          2.3715101123       -1.1478320294        0.3530162763
 C          3.3295792046       -1.6093777571        1.2453467933
 C          2.9798180397       -2.5084743455        2.2387900639
 C          1.6762159407       -2.9499019593        2.3732518439
 C          0.7133595733       -2.5035674557        1.4748477055
 C          1.0750333168       -1.6340641827        0.4607855738
 H          0.3273566677       -1.2936497974       -0.2407148604
 N         -0.6221736133       -2.9251285955        1.5594671018
 S         -1.8379998538       -1.8393341668        1.1719288263
 O         -1.4854634378       -0.4850299117        1.5257961942
 O         -3.0158893691       -2.3758317858        1.8233560634
 C         -2.0358840954       -2.0043056396       -0.5887030569
 C         -2.0475912732       -3.2704306701       -1.1395624784
 C         -2.2189672192       -3.4009947806       -2.5081059640
 C         -2.3774110629       -2.2718420323       -3.2976122541
 C         -2.3709972286       -1.0082996630       -2.7285910060
 C         -2.2013950090       -0.8725193812       -1.3605463083
 H         -2.1725802737        0.0942480452       -0.8825483520
 H         -2.4785017027       -0.1274376742       -3.3410683058
 H         -2.5020842689       -2.3738619077       -4.3640715970
 H         -2.2229906639       -4.3814116406       -2.9567470213
 H         -1.9166823213       -4.1235533034       -0.4950463084
 H         -0.8491282064       -3.4757426341        2.3747455283
 H          1.4015869919       -3.6284905292        3.1664565994
 H          3.7311202593       -2.8564070007        2.9315294848
 H          4.3452799474       -1.2566460155        1.1730612654
 H          2.5465430261       -0.6495003032       -1.7057609899
 C          4.0134223521        0.4980175034       -0.6512749393
 C          5.1976548637       -0.1769902994       -1.2736220487
 C          4.6268585941        1.0600852381       -1.8972505937
 H          5.1854037196        1.9812533206       -1.8265864232
 H          4.0643409590        0.9602006661       -2.8143090684
 H          6.1532192693       -0.1037108990       -0.7766632617
 H          5.0305331300       -1.1184961899       -1.7744043249
 H          4.1604604906        1.0484883848        0.2706592631
