  62
        -98.94467821
 C         -2.5759098494        0.1691334513        0.3579151785
 C         -2.1614994518        0.7077900833       -0.8846203317
 C         -1.6935952806        2.1007153323       -0.8537883605
 C         -1.6691663815        2.7628683436        0.3167505936
 C         -1.1991008297        4.1773436349        0.4969523530
 C          0.2910507370        4.2396711618        0.8556786579
 C          1.1898119610        3.4210598176       -0.0716694937
 H          2.2221972250        3.5958821454        0.2417828608
 H          0.9940583592        2.3561316206        0.0787042832
 C          1.0447766843        3.7553935596       -1.5628091566
 H          0.5811055936        4.7361623986       -1.6810258967
 H          2.0423887100        3.8100304731       -2.0033408499
 C          0.2612429847        2.7161117640       -2.3675143084
 H          0.6409514671        1.7183717944       -2.1335440304
 H          0.4412667083        2.9003071328       -3.4303354375
 C         -1.2580859887        2.7138451096       -2.1542537710
 H         -1.6484195202        3.7296676526       -2.2528227274
 H         -1.7031035922        2.0948885120       -2.9388580696
 H          0.6043327947        5.2857006384        0.8379970186
 H          0.4201340714        3.8609512366        1.8725622688
 H         -1.3854088569        4.7327464668       -0.4203413608
 H         -1.7761761082        4.6267450466        1.3075075413
 O         -2.0596833738        2.2058607576        1.4935475242
 C         -2.4960537421        0.8931440564        1.5455168546
 O         -2.7922859305        0.4928665428        2.6924042396
 H         -0.4781578023       -1.0440751574        1.1383392704
 C         -0.6289344233       -1.8951033507        0.4853018566
 C         -1.9052875770       -2.1825892562        0.0159472010
 C         -2.0667244659       -3.2896133189       -0.8061393801
 C         -0.9762017522       -4.0646152587       -1.1666159947
 C          0.2971596414       -3.7473794427       -0.7295440555
 C          0.4644155719       -2.6512217849        0.1058034841
 N          1.7762296675       -2.2658638682        0.5196981416
 S          2.0605321294       -0.6090190182        0.4862166551
 O          1.7296808742        0.0136984036        1.7547970340
 O          1.4337690641       -0.0746430950       -0.6941173514
 C          3.8311518050       -0.6073795247        0.2749415052
 C          4.6579213673       -0.2316630462        1.3148968929
 C          6.0313971915       -0.2741863244        1.1295202829
 C          6.5509945744       -0.6929244943       -0.0854869888
 C          5.7076076170       -1.0670503623       -1.1215017191
 C          4.3346189960       -1.0250216096       -0.9421202614
 H          3.6385921560       -1.2988776692       -1.7179551466
 H          6.1149020302       -1.3908021079       -2.0657625192
 H          7.6197324454       -0.7267997778       -0.2267978435
 H          6.6885884017        0.0183163134        1.9326629345
 H          4.2082516471        0.0907488500        2.2404598126
 H          2.0484579450       -2.6537406050        1.4123040691
 H          1.1548064604       -4.3289494647       -1.0256678771
 H         -1.1207512607       -4.9176525049       -1.8118881063
 H         -3.0482315477       -3.5402303172       -1.1748712586
 C         -3.0347942924       -1.2760903048        0.4427315788
 H         -3.2376998251       -1.4664960748        1.5078631625
 C         -4.3114989498       -1.4859666629       -0.3436963392
 C         -5.2937555563       -2.5356954215        0.0794306820
 C         -5.6149720369       -1.0856629571        0.2771465398
 H         -6.3663890669       -0.6305540407       -0.3501820507
 H         -5.5817285693       -0.6837006458        1.2797035664
 H         -5.8307932093       -3.0769559128       -0.6846770847
 H         -5.0532811879       -3.1229838603        0.9528075416
 H         -4.1814719513       -1.2973232403       -1.4028647882
 O         -2.2007864193        0.0651488488       -1.9660087738
