  62
        -98.94090946
 C         -2.3838902676       -1.2698649235        0.1499389333
 C         -2.2465883785        0.1344900076        0.0071967811
 C         -3.3393869551        0.9421132983        0.5713956108
 C         -4.3647607664        0.3470127857        1.2047492999
 C         -5.5401920764        1.0383611220        1.8403696199
 C         -6.6663204557        1.3852964623        0.8568557143
 C         -6.3624494576        2.5384479559       -0.1005136976
 H         -7.3047813391        2.8159551227       -0.5769339300
 H         -6.0193107595        3.4021947531        0.4698424529
 C         -5.3383501897        2.2020907842       -1.1934959764
 H         -5.2357764683        1.1175355371       -1.2754608191
 H         -5.7029473279        2.5623192284       -2.1581013356
 C         -3.9546444814        2.8148058302       -0.9754976174
 H         -4.0238159528        3.9039151609       -1.0225426110
 H         -3.3004284039        2.4858086375       -1.7873163650
 C         -3.2935081897        2.4245072110        0.3530712845
 H         -2.2423523394        2.7228760758        0.3157837277
 H         -3.7746624737        2.9463480199        1.1800984818
 H         -6.9160652630        0.4905951776        0.2818841781
 H         -7.5436812436        1.6552393842        1.4489799583
 H         -5.9371026077        0.3500561452        2.5896586478
 H         -5.2032832383        1.9444684797        2.3447659759
 O         -4.4382751047       -1.0012886285        1.3599844353
 C         -3.4638330554       -1.8344789735        0.8369929319
 O         -3.6655790175       -3.0461952590        1.0524588867
 H          0.5821756731       -0.8936509045       -1.7611462868
 C          0.8875028663       -1.1253195802       -0.7526408320
 C          0.0268539644       -1.8202518547        0.0808512090
 C          0.4239562009       -2.0745906881        1.3898698646
 C          1.6559296459       -1.6470155804        1.8481087014
 C          2.5110237032       -0.9471491460        1.0147085074
 C          2.1140792250       -0.6701891272       -0.2862326949
 N          2.9672585589        0.0497238075       -1.1382115960
 S          3.7836237908        1.3874072079       -0.5407697703
 O          3.0674068582        2.0373487533        0.5317437238
 O          4.0757511229        2.1969190326       -1.7042509533
 C          5.3084757018        0.6994902974        0.0746806072
 C          6.0461099550       -0.1110074913       -0.7659937035
 C          7.2386823751       -0.6450391062       -0.3049798337
 C          7.6737954666       -0.3588240013        0.9804889144
 C          6.9244684670        0.4600400565        1.8110328346
 C          5.7299494328        0.9965348560        1.3558775905
 H          5.1116085433        1.6336702226        1.9684123100
 H          7.2640983705        0.6825988365        2.8098683171
 H          8.6021370698       -0.7761728989        1.3372695900
 H          7.8241683539       -1.2822182303       -0.9480608085
 H          5.6751480028       -0.3068514878       -1.7580235617
 H          2.5547268066        0.2568794663       -2.0364891730
 H          3.4655188260       -0.5954629135        1.3706316371
 H          1.9527959957       -1.8545752231        2.8650392196
 H         -0.2526999137       -2.6030943580        2.0476932555
 C         -1.3454765142       -2.2515943163       -0.3705047968
 H         -1.5826348727       -3.2038089861        0.1298458739
 C         -1.4221963326       -2.5187918736       -1.8667982401
 C         -2.7534335196       -2.6840485353       -2.5358279309
 C         -1.8922685952       -1.5028272850       -2.8618914074
 H         -1.4081780744       -1.4745363863       -3.8276361350
 H         -2.1870969300       -0.5319792062       -2.4964708060
 H         -3.6339074422       -2.5235810534       -1.9303323049
 H         -2.8676280043       -3.4613216521       -3.2761360485
 H         -0.6316159436       -3.1873833020       -2.1940889640
 O         -1.2810453678        0.7064829374       -0.5619459473
