  62
        -98.94558883
 C         -0.8112920655       -1.2680027720       -0.1366813886
 C         -1.5736703820       -0.7284996686        0.9320436897
 C         -2.5212118601        0.3384923166        0.5910541998
 C         -2.5737297490        0.7826816574       -0.6772810936
 C         -3.5320734249        1.8218737537       -1.1831359350
 C         -4.8197663183        1.1746247327       -1.7121860936
 C         -5.4402789419        0.1612122163       -0.7500753393
 H         -4.7676738667       -0.6940165903       -0.6519482989
 H         -6.3590331564       -0.2051266935       -1.2132756972
 C         -5.7573944928        0.7196153045        0.6444783591
 H         -6.7546697966        0.3837408825        0.9362486269
 H         -5.7808916305        1.8093571552        0.6102561344
 C         -4.7948649968        0.2662282486        1.7440857967
 H         -4.6985338110       -0.8220089972        1.7192087781
 H         -5.2327736448        0.5338310066        2.7092593915
 C         -3.3884490308        0.8769635119        1.6937252529
 H         -2.8789297019        0.6175411596        2.6257878334
 H         -3.4655148857        1.9639444450        1.6319103079
 H         -4.5900695037        0.6616962488       -2.6491464058
 H         -5.5411277755        1.9654021122       -1.9266379138
 H         -3.7719619361        2.5147900544       -0.3786243682
 H         -3.0512844957        2.3702137363       -1.9954187074
 O         -1.7798290827        0.2949109551       -1.6621388125
 C         -0.8971826035       -0.7550267306       -1.4319392929
 O         -0.2783231674       -1.1111305568       -2.4532728876
 H          1.6344918722       -0.4962198243       -0.9761188101
 C          2.1386388216       -0.9848102530       -0.1564930895
 C          1.5047270902       -1.9932678992        0.5536886727
 C          2.1963595813       -2.6220237976        1.5841726562
 C          3.4936157245       -2.2561587880        1.8906439008
 C          4.1175847621       -1.2384034894        1.1922828882
 C          3.4322544019       -0.5972152728        0.1667686428
 N          4.0310736147        0.4553079664       -0.5392529132
 S          3.1053706180        1.7386180375       -1.0664350120
 O          2.4631264308        1.4265650770       -2.3172260725
 O          4.0376034104        2.8480487507       -1.1097977106
 C          1.8847855223        2.0531928173        0.1981051325
 C          2.2444157628        2.0018499709        1.5303831180
 C          1.2956638680        2.3056309001        2.4930536704
 C          0.0174439967        2.6805601109        2.1110797719
 C         -0.3225133185        2.7464378171        0.7697107250
 C          0.6147665342        2.4186952764       -0.1965535893
 H          0.3817808396        2.4303786293       -1.2502746168
 H         -1.3121499061        3.0487897363        0.4691930670
 H         -0.7188194929        2.9225934069        2.8608463385
 H          1.5570174467        2.2528252731        3.5375146920
 H          3.2487030751        1.7253676313        1.8063038438
 H          4.9279132380        0.7565704840       -0.1867709848
 H          5.1256546784       -0.9392079120        1.4349697711
 H          4.0200917030       -2.7563243324        2.6887126299
 H          1.7058299325       -3.3977954569        2.1519120433
 C          0.0989534186       -2.4295413184        0.2134216299
 H         -0.3340431660       -2.8689162966        1.1234724825
 C          0.1517229543       -3.5061127235       -0.8550503704
 C          0.4066684961       -4.9292755969       -0.4630852661
 C         -0.9528451215       -4.5148701616       -0.9386417682
 H         -1.2847199835       -4.8334837889       -1.9152720270
 H         -1.7476532384       -4.4445368205       -0.2100985772
 H          0.5257575339       -5.1511399468        0.5861665530
 H          1.0156224524       -5.5382420806       -1.1132813102
 H          0.5756410654       -3.1565184460       -1.7879628508
 O         -1.4767376337       -1.1403759968        2.1186892609
