  62
        -98.94626147
 C         -2.3880098793       -0.5311847330       -0.0123511038
 C         -1.3921187934       -0.7273631728        0.9718797249
 C         -0.7001016201       -2.0216442432        0.9464154183
 C         -1.0377692514       -2.9256961880        0.0092604214
 C         -0.3310618087       -4.2286170086       -0.2331045938
 C          0.9747345311       -3.9653303657       -1.0121049327
 C          2.2510052936       -4.2977969627       -0.2381299265
 H          2.3798763352       -5.3824282698       -0.2127257309
 H          3.0866271694       -3.8765924468       -0.8017782733
 C          2.3109053829       -3.7812553866        1.2027221777
 H          1.7458875756       -4.4497292975        1.8545151831
 H          3.3540255403       -3.8424582928        1.5199525293
 C          1.8134035887       -2.3458030109        1.4167141621
 H          2.4731383216       -1.8571904618        2.1372656449
 H          1.8776195786       -1.7753976568        0.4889326705
 C          0.3782856661       -2.2462216394        1.9693095408
 H          0.3191976494       -1.3824465249        2.6375769227
 H          0.1468760042       -3.1380905303        2.5581348261
 H          0.9724599589       -4.5490510346       -1.9345918959
 H          0.9940765261       -2.9134715719       -1.3089772309
 H         -1.0001394565       -4.8618913306       -0.8164315802
 H         -0.1210672677       -4.7197215512        0.7145627587
 O         -2.0251463482       -2.7157725357       -0.9001122064
 C         -2.7013147996       -1.5077650605       -0.9544298255
 O         -3.5479864076       -1.4282816249       -1.8695866922
 O         -1.0839929910        0.1493254785        1.8233671348
 C         -3.0648169351        0.8233717553       -0.1259000102
 C         -2.0038223805        1.8885939987       -0.2759483129
 C         -2.0475630245        3.1162337756        0.3726325718
 C         -1.0149787515        4.0262208629        0.2206782747
 C          0.0897009329        3.7241337852       -0.5547484089
 C          0.1360674812        2.5034188596       -1.2184381576
 C         -0.9213365289        1.6167239038       -1.1032759800
 H         -0.8737769180        0.6752648119       -1.6311497271
 N          1.2432916755        2.1340618763       -2.0097780308
 S          2.1003428801        0.7602890955       -1.5760408260
 O          3.1725592775        0.6718000825       -2.5445227907
 O          1.2177594005       -0.3752488274       -1.5028048883
 C          2.7928122235        1.1415707781        0.0237710545
 C          4.1338250023        1.4671035158        0.0983898049
 C          4.6754157282        1.8112745265        1.3259140817
 C          3.8675206632        1.8333081621        2.4530147138
 C          2.5230772708        1.5098147114        2.3592343940
 C          1.9737527587        1.1600789975        1.1348128755
 H          0.9311752389        0.8966284897        1.0496614865
 H          1.8864079655        1.5236304169        3.2294354350
 H          4.2868194871        2.1026535999        3.4096306170
 H          5.7215852122        2.0613014693        1.3993019157
 H          4.7216660799        1.4336486448       -0.8047020164
 H          1.8965947398        2.8881581409       -2.1727712364
 H          0.9089244926        4.4212810809       -0.6469002045
 H         -1.0614800189        4.9755028400        0.7320876578
 H         -2.8863860231        3.3568847002        1.0051505455
 H         -3.6625592693        0.7925399213       -1.0489412482
 C         -3.9896714315        1.0583403865        1.0505128462
 C         -5.2235339044        1.8935350630        0.8900196826
 C         -5.3392030084        0.4079459599        1.0474966498
 H         -5.7240959896        0.0132790510        1.9757324183
 H         -5.5998851921       -0.1829599011        0.1811594679
 H         -5.5342356108        2.5186645568        1.7135511731
 H         -5.4204058916        2.3144659607       -0.0844434884
 H         -3.4573063830        1.1024392551        1.9935886299
