  62
        -98.94092644
 C          2.2832202536       -0.5307777683       -0.1600191463
 C          3.5577917247       -1.0547127450       -0.4832695295
 C          4.6446199277       -0.0739435277       -0.6007994887
 C          4.3723211609        1.2321268639       -0.4249023668
 C          5.3918843955        2.3326667350       -0.4685323209
 C          5.9680596933        2.6120201702        0.9266094003
 C          6.4318954557        1.3567212404        1.6655966688
 H          6.8485279333        1.6782405119        2.6226264629
 H          5.5629371550        0.7327662805        1.8873422251
 C          7.4745862716        0.5229359749        0.9079020934
 H          8.2654358230        0.2357069529        1.6039327944
 H          7.9351419423        1.1276824117        0.1259625740
 C          6.9300817692       -0.7686824776        0.2951131754
 H          6.3837006705       -1.3325466656        1.0553582623
 H          7.7798373544       -1.3806483102       -0.0186499766
 C          6.0165660967       -0.5953331257       -0.9248920304
 H          6.5063270495        0.0412361020       -1.6644199694
 H          5.8634550113       -1.5835317611       -1.3682915329
 H          6.8045052420        3.3053964263        0.8218984284
 H          5.1964347117        3.0981107589        1.5282003277
 H          6.1901536280        2.0540708331       -1.1536453841
 H          4.9053254407        3.2365847297       -0.8388110082
 O          3.1296377214        1.7002427654       -0.1391366583
 C          2.0560796169        0.8343429300        0.0114488604
 O          0.9782715045        1.3965013394        0.2871687691
 H         -1.5600080652       -0.9883995055        0.5119661113
 C         -1.2964001800       -0.8904016661       -0.5267078602
 C          0.0056044005       -1.1073424436       -0.9481833489
 C          0.3019766011       -0.9730961503       -2.3027178726
 C         -0.6761508610       -0.6081493984       -3.2060152405
 C         -1.9687863499       -0.3632314073       -2.7763849815
 C         -2.2792925454       -0.5070674627       -1.4298693332
 N         -3.6023986208       -0.3121540605       -0.9857292070
 S         -3.9102508356        0.5656273607        0.4241122464
 O         -3.4622252415        1.9333117678        0.2754067905
 O         -3.4088557600       -0.1607117696        1.5617116869
 C         -5.6935299224        0.5061987670        0.4197720800
 C         -6.4185041260        1.6211308893        0.0455476469
 C         -7.8027027088        1.5462934683        0.0272471720
 C         -8.4344494054        0.3631676176        0.3787248837
 C         -7.6930578797       -0.7479054252        0.7531221602
 C         -6.3093756147       -0.6789721040        0.7750669517
 H         -5.6926214603       -1.5128455721        1.0665835596
 H         -8.1880717893       -1.6652906964        1.0281129671
 H         -9.5114379220        0.3070958355        0.3632822984
 H         -8.3812820871        2.4094545014       -0.2600607811
 H         -5.8839286705        2.5211849415       -0.2128883423
 H         -4.1914180706        0.0501921540       -1.7253651032
 H         -2.7313287998       -0.0642061242       -3.4799979681
 H         -0.4304671104       -0.5028942578       -4.2522231362
 H          1.3163953670       -1.1503531859       -2.6343154704
 C          1.1158435295       -1.4878198127       -0.0009997870
 H          1.5025502853       -2.4735821305       -0.3005926342
 C          0.6841150311       -1.5565210654        1.4482812074
 C          0.0281855891       -2.7943300439        1.9803033938
 C          1.4291122035       -2.4538596460        2.3887388119
 H          1.6058239267       -2.1106043030        3.3971182938
 H          2.2389173472       -3.0383823443        1.9768179392
 H         -0.1139310240       -3.6159386839        1.2946767680
 H         -0.7635623483       -2.6821227625        2.7056979939
 H          0.3494609817       -0.5976803106        1.8312542300
 O          3.7736575175       -2.2822615320       -0.6704852293
