  62
        -98.93897902
 C         -2.0936066048       -0.8768808642        0.3712629300
 C         -2.7297553932        0.0099108170        1.2762710244
 C         -3.1676237658        1.2990222233        0.7261293560
 C         -2.8858368796        1.5935026883       -0.5558947043
 C         -3.3090458419        2.8492203094       -1.2602141271
 C         -4.6697231969        2.6690262562       -1.9479463259
 C         -5.7432988556        2.0631692067       -1.0436787643
 H         -6.6660556507        2.0109386142       -1.6253381921
 H         -5.4618718643        1.0371320594       -0.7956180058
 C         -5.9983111959        2.8460995079        0.2519192574
 H         -5.6019032432        3.8575669747        0.1569340461
 H         -7.0763956775        2.9325515960        0.4019050296
 C         -5.4247129161        2.1936643738        1.5111270371
 H         -5.7456270196        1.1501214902        1.5616135644
 H         -5.8431242412        2.7069026045        2.3808489446
 C         -3.8974678228        2.2354388860        1.6478256644
 H         -3.5432842093        3.2597976834        1.5146566432
 H         -3.6448230026        1.9131877601        2.6623410887
 H         -5.0036045815        3.6425773001       -2.3112847609
 H         -4.5363790483        2.0116995819       -2.8103426028
 H         -3.3585570256        3.6637132348       -0.5399088618
 H         -2.5564555971        3.0886844594       -2.0136816657
 O         -2.2116990219        0.7487825126       -1.3761346383
 C         -1.7968351073       -0.5038466157       -0.9414548992
 O         -1.1891972944       -1.1601164627       -1.8076647993
 H          0.3860172518       -0.5758053274        1.3975951344
 C          0.7304595305       -1.4517223629        0.8586640794
 C         -0.1859671786       -2.4405793509        0.5208200385
 C          0.2699015230       -3.5486287954       -0.1795456733
 C          1.6016499156       -3.6486554463       -0.5455733863
 C          2.5041609448       -2.6516790571       -0.2253190382
 C          2.0584314393       -1.5429499609        0.4802000515
 N          2.9743083727       -0.5039196501        0.7884702476
 S          3.3502950064        0.5061984214       -0.5182202167
 O          2.4205469812        1.6183115928       -0.5497514858
 O          3.4595388323       -0.2881169824       -1.7134093830
 C          4.9636618437        1.0897054015       -0.0330306967
 C          6.0462744401        0.2537612069       -0.2262766394
 C          7.3017762171        0.6782814628        0.1772790466
 C          7.4526968846        1.9244818272        0.7673526916
 C          6.3565878830        2.7522592628        0.9553015903
 C          5.0978452898        2.3324125712        0.5539430196
 H          4.2191565141        2.9458837565        0.6723364934
 H          6.4763392656        3.7215030059        1.4120974440
 H          8.4309061762        2.2536224146        1.0804986040
 H          8.1566212176        0.0379084170        0.0311013276
 H          5.8817404724       -0.7014622465       -0.6964674516
 H          2.6130171353        0.0935353903        1.5219425597
 H          3.5352649714       -2.7062121155       -0.5324731897
 H          1.9372775585       -4.5117118265       -1.1003582706
 H         -0.4231902782       -4.3216283505       -0.4684266060
 C         -1.6251749413       -2.2170874812        0.9123795045
 H         -1.6628651375       -2.0934235609        2.0083054497
 C         -2.5382466785       -3.3869302660        0.5797300642
 C         -3.9930449659       -3.1720587767        0.2903958734
 C         -3.0708600873       -3.6212197743       -0.8009982638
 H         -3.1528300175       -4.6396098907       -1.1519575634
 H         -2.7939644601       -2.9158775578       -1.5686037261
 H         -4.3530326444       -2.1535170674        0.2673457234
 H         -4.7057603012       -3.8784712176        0.6886262642
 H         -2.2922799446       -4.2696827511        1.1618309634
 O         -2.9132957702       -0.2624441536        2.4934301783
