  62
        -98.93327240
 C         -2.2775276393       -0.2760048458        0.1786650955
 C         -3.4362053649       -0.7041061076        0.8683943332
 C         -4.6756886373        0.0280783738        0.5698320147
 C         -4.6372169789        1.0481606639       -0.3070269443
 C         -5.8267870073        1.8357428851       -0.7781094566
 C         -6.6193101407        1.0186148472       -1.8186059377
 C         -8.0243281607        0.6176078091       -1.3685425212
 H         -8.3960707980       -0.1230639324       -2.0797674534
 H         -8.6786473818        1.4897801648       -1.4289070942
 C         -8.1343749969        0.0469972285        0.0486691892
 H         -9.1144684946       -0.4287084749        0.1243396223
 H         -8.1274298211        0.8617871906        0.7741102724
 C         -7.0603834813       -0.9735042728        0.4470031282
 H         -6.6412057247       -1.4565401736       -0.4359128203
 H         -7.5385922064       -1.7557506432        1.0400412581
 C         -5.9168874165       -0.3987938315        1.3039604593
 H         -5.5773012052       -1.1735657170        1.9977460787
 H         -6.2928162412        0.4357747402        1.9022063478
 H         -6.0434327899        0.1228135149       -2.0604519022
 H         -6.7070844636        1.5931286142       -2.7419539589
 H         -5.4503232445        2.7563200387       -1.2242529157
 H         -6.4582405928        2.0911724028        0.0698717238
 O         -3.4995622082        1.4394723832       -0.9388066374
 C         -2.2927644370        0.7928195769       -0.7165158410
 O         -1.3343249320        1.2577068662       -1.3617595678
 O         -3.4320536216       -1.6514977579        1.7007226307
 C         -0.9671346121       -0.9991484384        0.4272039757
 C          0.0786742455       -0.0402074905        0.9396458451
 C         -0.2364058285        0.7870316039        2.0155126784
 C          0.6953051270        1.6697750526        2.5247684484
 C          1.9679106858        1.7361810747        1.9845914586
 C          2.2930717399        0.9153521093        0.9120516950
 C          1.3507048081        0.0352149480        0.3966206038
 H          1.6324961836       -0.5878297181       -0.4353178128
 N          3.5675504834        0.9751322744        0.3266946420
 S          4.2437770316       -0.4408844688       -0.2932101017
 O          3.7499808679       -0.6539640160       -1.6303310566
 O          4.0570295002       -1.5299707752        0.6388041548
 C          5.9637201642        0.0276520266       -0.3570377816
 C          6.3972865574        0.8159158230       -1.4065510630
 C          7.7266048012        1.2052369699       -1.4469045682
 C          8.5955832798        0.8025446893       -0.4434331447
 C          8.1465155501        0.0101412592        0.6022106932
 C          6.8177236800       -0.3815355233        0.6496436331
 H          6.4254431632       -1.0035492724        1.4380497606
 H          8.8251498783       -0.3043076876        1.3786240732
 H          9.6300147142        1.1058204975       -0.4785800866
 H          8.0799527527        1.8189751056       -2.2597365430
 H          5.6881604049        1.0962062475       -2.1680733064
 H          4.2318065830        1.5012030936        0.8776217869
 H          2.6982514676        2.4230788039        2.3844512919
 H          0.4330856522        2.3066120228        3.3563922217
 H         -1.2276342260        0.7278490104        2.4447721517
 H         -1.1800035974       -1.7256670068        1.2264315863
 C         -0.5379589215       -1.7560155917       -0.8117691198
 C          0.3321713770       -2.9699445689       -0.6897563480
 C         -1.1086984354       -3.1160899145       -1.0743022934
 H         -1.3466402075       -3.3881355409       -2.0916616824
 H         -1.7950909595       -3.5148825858       -0.3416112592
 H          1.0914091796       -3.1351124647       -1.4400576352
 H          0.6308326227       -3.2725196471        0.3028745104
 H         -0.3834840664       -1.1044151907       -1.6655238035
