  62
        -98.93801522
 C         -2.3895776359       -1.2054634673       -0.1007398633
 C         -3.1653299870       -0.4899067056        0.8372956278
 C         -4.0139523489        0.5982736197        0.3129815943
 C         -3.9929706335        0.8533005228       -1.0089131241
 C         -4.7310551206        1.9290451711       -1.7604922996
 C         -4.0986543967        3.3186599865       -1.5787695570
 C         -3.6855576412        3.6557964897       -0.1483082349
 H         -2.9826212983        2.9009084140        0.2098017462
 H         -3.1508081803        4.6091149265       -0.1723416343
 C         -4.8355203705        3.7909365259        0.8470710753
 H         -5.5120138319        4.5782124322        0.5071280656
 H         -4.4046884920        4.1121577312        1.7990853953
 C         -5.6541699324        2.5233021067        1.0999220256
 H         -6.2665858784        2.7039196672        1.9882170330
 H         -6.3448010959        2.3335036033        0.2828608189
 C         -4.8260068827        1.2754817881        1.3910236506
 H         -4.1242890937        1.4930895383        2.2047705667
 H         -5.4930138205        0.5002992066        1.7878073166
 H         -3.2027240372        3.3654806574       -2.2026106160
 H         -4.8027019782        4.0687981054       -1.9423394013
 H         -5.7770403677        1.9371681329       -1.4690717708
 H         -4.6820984165        1.6613930304       -2.8181649742
 O         -3.2123830821        0.1464641229       -1.8756215797
 C         -2.3968155518       -0.8892509409       -1.4588206556
 O         -1.7447693640       -1.4334765433       -2.3688844261
 O         -3.1470597888       -0.7382410047        2.0751002021
 C         -1.5017868715       -2.3369306720        0.3813827545
 C         -0.0556670380       -2.0487069480        0.0589973163
 C          0.8128867702       -2.9963690200       -0.4658045503
 C          2.1336968415       -2.6707740742       -0.7234080153
 C          2.6175386856       -1.4023752572       -0.4632719582
 C          1.7617050662       -0.4499351042        0.0750013650
 C          0.4415991597       -0.7809310245        0.3367085822
 H         -0.2229239424       -0.0369831104        0.7605125794
 N          2.2432227579        0.8457531711        0.3378132061
 S          3.6208683838        0.9884723970        1.2903542566
 O          3.7453207534       -0.1216498572        2.2064123432
 O          3.5356232395        2.3053793093        1.8834272811
 C          4.9599541478        0.9666656132        0.1177426544
 C          4.9626821385        1.9170876620       -0.8843200477
 C          6.0027479703        1.9205142692       -1.7998884704
 C          7.0181601806        0.9812699722       -1.6964171619
 C          7.0026841797        0.0359856381       -0.6822980630
 C          5.9642275725        0.0260133313        0.2360537612
 H          5.9068775697       -0.6927701660        1.0378099293
 H          7.7930154619       -0.6930521247       -0.6036783600
 H          7.8261902772        0.9865458179       -2.4107734954
 H          6.0179643481        2.6539477661       -2.5899522502
 H          4.1571815551        2.6312017312       -0.9269109168
 H          1.5291653551        1.4830183568        0.6600524035
 H          3.6428373106       -1.1429996172       -0.6705735303
 H          2.7948661186       -3.4163052101       -1.1379228294
 H          0.4550985409       -3.9903244720       -0.6779444814
 H         -1.6078758689       -2.3455008631        1.4771699148
 C         -1.9938679873       -3.6610879134       -0.1643248196
 C         -1.7866146066       -4.9249429195        0.6140281548
 C         -3.1567394442       -4.3286489349        0.5045219217
 H         -3.8907609909       -4.8258505375       -0.1115734595
 H         -3.5749202126       -3.8406088985        1.3730317332
 H         -1.5821139874       -5.8363588574        0.0728320406
 H         -1.2764422234       -4.8501795759        1.5625708180
 H         -1.9439665882       -3.7082295120       -1.2463508452
