  62
        -98.93558133
 C         -1.9358543060       -0.9969588157        0.2208382837
 C         -2.3690818109       -0.0032962247        1.1300858889
 C         -2.5914957367        1.3488388338        0.5908849365
 C         -2.3360973554        1.5875008225       -0.7087069644
 C         -2.4048192463        2.8639002853       -1.5217665392
 C         -3.1133046947        4.1011401210       -0.9765626804
 C         -4.6293273705        3.9608730911       -0.8411974935
 H         -5.0638279794        3.9174878318       -1.8429392948
 H         -5.0127506693        4.8574578739       -0.3497007674
 C         -5.1111763526        2.7302652370       -0.0772284530
 H         -4.8104698051        1.8267812020       -0.6116725592
 H         -6.2041994301        2.7501537556       -0.0661620500
 C         -4.6344058677        2.6312971703        1.3704627353
 H         -5.1735115887        1.8037123417        1.8393535933
 H         -4.8938294846        3.5458944416        1.9069255377
 C         -3.1302391578        2.3654411679        1.5562717324
 H         -2.9803342394        1.9453601044        2.5554083295
 H         -2.5536166483        3.2862894234        1.5033940874
 H         -2.9182966528        4.9088247949       -1.6873043923
 H         -2.6700897335        4.4005206037       -0.0313167625
 H         -2.8568192241        2.5840170125       -2.4788833164
 H         -1.3622542412        3.1241024784       -1.7381052485
 O         -1.8858543159        0.6060813392       -1.5426328369
 C         -1.6556001277       -0.6898415326       -1.1107117485
 O         -1.2279939068       -1.4474796842       -2.0018450587
 O         -2.5542632821       -0.2334773847        2.3569770879
 C         -1.6355052583       -2.3805767891        0.7704636243
 C         -0.2611754966       -2.8014436909        0.3129144780
 C          0.0152098459       -3.9963384596       -0.3366199431
 C          1.3020291081       -4.2755146692       -0.7647648321
 C          2.3279912806       -3.3702984314       -0.5708771141
 C          2.0626413079       -2.1751387526        0.0898533845
 C          0.7831062628       -1.9141470899        0.5457429802
 H          0.5851770672       -0.9802597627        1.0539258330
 N          3.0840807042       -1.2351192695        0.3210397984
 S          2.6772216630        0.4034565180        0.3158866220
 O          2.1480407247        0.7520510368        1.6121239747
 O          1.8476598987        0.7247155054       -0.8239828399
 C          4.2982183649        1.1229747842        0.1244830485
 C          5.1008360807        1.2580095210        1.2416005809
 C          6.3742256623        1.7838952711        1.0918047541
 C          6.8220245569        2.1623773530       -0.1652717619
 C          6.0047965921        2.0223095300       -1.2769046440
 C          4.7303627602        1.4960103653       -1.1341270869
 H          4.0557944539        1.3755151794       -1.9669530430
 H          6.3538163723        2.3200647471       -2.2524977208
 H          7.8132024123        2.5718431114       -0.2793313173
 H          7.0111401188        1.8967955015        1.9541458441
 H          4.7044292613        0.9579836479        2.1975197992
 H          3.9059604842       -1.4096418492       -0.2417813851
 H          3.3238598997       -3.5792898519       -0.9310226453
 H          1.5033721401       -5.2041499954       -1.2771193292
 H         -0.7795589536       -4.6962820082       -0.5353462413
 H         -1.5960330594       -2.2334148285        1.8638203369
 C         -2.7152586397       -3.4199821233        0.5125035738
 C         -4.1355149826       -3.0113289354        0.2630994040
 C         -3.3268336129       -3.6206013563       -0.8405616693
 H         -3.5638506768       -4.6279769623       -1.1503739461
 H         -2.9818455886       -2.9849094841       -1.6405185087
 H         -4.9242196557       -3.5971324082        0.7108904482
 H         -4.3489450280       -1.9531429104        0.2158356818
 H         -2.5741697816       -4.3091895502        1.1194036599
