  62
        -98.94624499
 C          1.2041487003        1.0580778599        0.5787669097
 C          1.7437925399        0.6879576793       -0.6771737003
 C          2.5338226196       -0.5515073409       -0.6850337100
 C          2.6240312897       -1.2981408805        0.4295317703
 C          3.3999807894       -2.5787874407        0.5784575606
 C          4.8894821495       -2.3660425309        0.8837086401
 C          5.7297674993       -1.8722002016       -0.2948426003
 H          6.7777081194       -1.9803176218       -0.0079938606
 H          5.5609853389       -2.5185771819       -1.1567335000
 C          5.4756436696       -0.4101814417       -0.6879173108
 H          4.9679518200        0.1048636387        0.1308835291
 H          6.4314557797        0.0965315080       -0.8395799413
 C          4.6601148993       -0.2286459320       -1.9682837607
 H          4.5137577596        0.8422498780       -2.1305494711
 H          5.2203737690       -0.6235643625       -2.8187072407
 C          3.2790189391       -0.8969578416       -1.9390958001
 H          3.3826403988       -1.9771394717       -2.0386751897
 H          2.7002462090       -0.5195209618       -2.7859148501
 H          4.9803002599       -1.6640787506        1.7157956598
 H          5.2951427593       -3.3253321009        1.2133401704
 H          3.3022999789       -3.1808682410       -0.3254187392
 H          2.9523295094       -3.1202912002        1.4143974809
 O          1.9836561801       -0.9686683199        1.5828047503
 C          1.2830164604        0.2184384904        1.6914081700
 O          0.7711942308        0.4111688809        2.8142109201
 O          1.5930086998        1.3497175089       -1.7353492505
 C          0.4534518807        2.3691051202        0.7585392794
 C         -0.8913114395        2.2450012103        0.0865380798
 C         -1.2123405996        2.8515834899       -1.1198828403
 C         -2.4520294098        2.6407188100       -1.7011650299
 C         -3.3948394899        1.8324561905       -1.0921237194
 C         -3.0809594997        1.2223373409        0.1159598908
 C         -1.8390567495        1.4288765408        0.6942260604
 H         -1.5885131994        0.9436701811        1.6295330405
 N         -4.0348448698        0.3807862914        0.7361211014
 S         -4.3140429604       -1.0758094088       -0.0404071480
 O         -4.8211149807       -0.8048863592       -1.3604339779
 O         -5.1764329904       -1.8326508382        0.8372208626
 C         -2.7148768406       -1.8594330493       -0.1447400281
 C         -1.8246999708       -1.4411616499       -1.1140698585
 C         -0.5652866510       -2.0166061403       -1.1573498886
 C         -0.2213592310       -2.9959314600       -0.2386687383
 C         -1.1239056408       -3.4006071894        0.7322105821
 C         -2.3815664207       -2.8224967490        0.7863040122
 H         -3.1153885805       -3.1083822285        1.5229499125
 H         -0.8494381708       -4.1597043592        1.4470442523
 H          0.7578213489       -3.4449224203       -0.2807155284
 H          0.1453179889       -1.6905508408       -1.9003489789
 H         -2.1242581008       -0.6835449401       -1.8200331787
 H         -3.8166653896        0.1922767917        1.7053077814
 H         -4.3569939401        1.6458023806       -1.5403825090
 H         -2.6871320700        3.1140704597       -2.6423894901
 H         -0.4862152996        3.4751189295       -1.6140888508
 H          0.2766206411        2.4660730607        1.8387299994
 C          1.2709519609        3.5545307898        0.2934202087
 C          0.8933051414        4.9299501401        0.7517350683
 C          2.1337022014        4.2773025800        1.2819507182
 H          3.0932526614        4.6482789496        0.9541802878
 H          2.1293584716        3.9244692704        2.3033089483
 H          1.0005863815        5.7525781698        0.0614796579
 H          0.0450494816        5.0193589706        1.4136462085
 H          1.6588168706        3.4413586493       -0.7108278413
