  62
        -98.94056382
 C          2.3406050436       -0.1832711514       -0.2783716749
 C          3.5149155239       -0.5611171329       -0.9721031834
 C          4.7265927988        0.2027001841       -0.6476732827
 C          4.6508495673        1.2057286152        0.2463501322
 C          5.8167391808        2.0290322838        0.7103814791
 C          6.4677691490        1.4142684170        1.9573320260
 C          6.7656721011       -0.0793965363        1.8259319384
 H          7.2510441234       -0.3968888566        2.7513853384
 H          5.8224614620       -0.6260406085        1.7545078582
 C          7.6553588827       -0.4462823672        0.6299849018
 H          8.1760697485        0.4414885084        0.2694848160
 H          8.4158732955       -1.1551198790        0.9641342599
 C          6.9132365528       -1.1057390052       -0.5339300705
 H          7.6565289570       -1.5183133083       -1.2213058825
 H          6.3141195259       -1.9401916678       -0.1606882017
 C          5.9982026284       -0.1836056290       -1.3496380362
 H          5.6907909044       -0.7293652008       -2.2465226384
 H          6.5526643291        0.7040271056       -1.6605678359
 H          7.3927141818        1.9549042350        2.1659445428
 H          5.7927501837        1.5549218327        2.8046652844
 H          5.4551833196        3.0290083372        0.9554481606
 H          6.5459205900        2.1032225999       -0.0939481004
 O          3.4984641875        1.5567059258        0.8727983426
 C          2.3171479414        0.8687975451        0.6369573385
 O          1.3414906357        1.2863878063        1.2888758213
 O          3.5463190981       -1.4891632694       -1.8249562280
 C          1.0555416359       -0.9453239971       -0.5436674797
 C         -0.0212010404       -0.0076940148       -1.0302160962
 C          0.2563796295        0.8312765120       -2.1073853908
 C         -0.7011984552        1.7006325730       -2.5908579284
 C         -1.9618952228        1.7433276139       -2.0210495377
 C         -2.2490204134        0.9118605860       -0.9458393284
 C         -1.2818755439        0.0425097649       -0.4588429972
 H         -1.5345245682       -0.5900983505        0.3751755642
 N         -3.5094102266        0.9505370383       -0.3284897404
 S         -4.1552223698       -0.4810875471        0.2881853936
 O         -3.6189501995       -0.7147126374        1.6052727652
 O         -3.9896083313       -1.5520331979       -0.6688221789
 C         -5.8755803454       -0.0266111171        0.4137855833
 C         -6.2896232489        0.7059507727        1.5103746619
 C         -7.6193494745        1.0859000434        1.5988081579
 C         -8.5080368199        0.7299629830        0.5949681574
 C         -8.0784794243       -0.0070837928       -0.4983359079
 C         -6.7495502148       -0.3893630220       -0.5936770078
 H         -6.3725494594       -0.9702031739       -1.4200354086
 H         -8.7724200471       -0.2853076765       -1.2750527099
 H         -9.5425580451        1.0262861611        0.6670936813
 H         -7.9574133075        1.6559495961        2.4490846001
 H         -5.5651711550        0.9510936661        2.2695876513
 H         -4.1931787294        1.4731479094       -0.8585933629
 H         -2.7119110822        2.4210713804       -2.3995957651
 H         -0.4686934307        2.3461316453       -3.4246400374
 H          1.2392530672        0.7921194502       -2.5576823439
 H          1.2919435249       -1.6439423597       -1.3608642612
 C          0.6548209290       -1.7468694389        0.6765420519
 C         -0.1855245686       -2.9784296168        0.5260623837
 C          1.2612611026       -3.0988161749        0.8973176325
 H          1.5132324426       -3.3930335524        1.9051264093
 H          1.9520881239       -3.4598853187        0.1493464003
 H         -0.9350834097       -3.1833463386        1.2762505564
 H         -0.4834028305       -3.2604585972       -0.4728089789
 H          0.4900433679       -1.1236764651        1.5493649831
