  62
        -98.93425731
 C         -1.8140603941       -1.6149284112        0.4379808036
 C         -1.8926495306       -0.4319380705        1.2131371729
 C         -2.9794550093        0.5131237905        0.8989163071
 C         -3.8227207281        0.2108043341       -0.1054472911
 C         -4.9594010174        1.0417013598       -0.6359124665
 C         -4.4743494666        2.2043720947       -1.5207612608
 C         -3.2257601623        2.9259444934       -1.0171961203
 H         -2.9049779567        3.6143695868       -1.8037035218
 H         -2.4253738837        2.1971640521       -0.8744996127
 C         -3.4138049128        3.7357922674        0.2636673472
 H         -4.1508303087        4.5220106526        0.0835186942
 H         -2.4613762884        4.2212802784        0.4916132304
 C         -3.8523724955        2.9433656446        1.4952645786
 H         -4.9011958315        2.6686480430        1.4227922168
 H         -3.7660098999        3.6093943727        2.3591582628
 C         -3.0018689056        1.7159487275        1.8104898953
 H         -3.2952241025        1.3382728659        2.7980699026
 H         -1.9556430919        2.0216480775        1.9169080467
 H         -5.2916425149        2.9186031009       -1.6329958977
 H         -4.2433380721        1.7983188318       -2.5084034384
 H         -5.5688525058        1.4028602682        0.1874883436
 H         -5.5801955678        0.3788648929       -1.2425419259
 O         -3.7005836354       -0.9302180633       -0.8377027051
 C         -2.7018757321       -1.8636728964       -0.6085241724
 O         -2.7332501159       -2.8339394457       -1.3868158579
 O         -1.0786022086       -0.1715836194        2.1403421293
 C         -0.6732667251       -2.5613496324        0.7708001573
 C          0.5450465946       -2.1067461186        0.0094769395
 C          0.5437777436       -2.0555101564       -1.3817704435
 C          1.6470617208       -1.5789413570       -2.0653550568
 C          2.7615762239       -1.1259206261       -1.3796584064
 C          2.7618583485       -1.1516456940        0.0081572436
 C          1.6613355826       -1.6505880317        0.6932246816
 H          1.6610698011       -1.6568454684        1.7744347112
 N          3.8744549363       -0.6524558366        0.7102125852
 S          4.4268493421        0.8650532042        0.2614719279
 O          5.2458096601        0.7459179127       -0.9186873458
 O          5.0844684652        1.3922047676        1.4357753094
 C          2.9560038747        1.8034134114       -0.1119310533
 C          2.7013881197        2.1986587910       -1.4092781061
 C          1.5335393547        2.8930146038       -1.6805268969
 C          0.6449808040        3.1776707421       -0.6554551772
 C          0.9171263618        2.7765832354        0.6431322158
 C          2.0813384125        2.0798744665        0.9199361989
 H          2.3179488469        1.7572552643        1.9211341580
 H          0.2245330443        2.9933045464        1.4408679598
 H         -0.2653310041        3.7154932380       -0.8690043657
 H          1.3177623820        3.2072273809       -2.6890074968
 H          3.4195978870        1.9597994605       -2.1764941224
 H          3.7756199236       -0.7091406646        1.7137135835
 H          3.6267474971       -0.7453130251       -1.8977421054
 H          1.6380561808       -1.5519418893       -3.1443951209
 H         -0.3361080714       -2.3851879867       -1.9143897940
 H         -0.4740000906       -2.3938339367        1.8409731852
 C         -1.0118348392       -4.0333862293        0.5948555562
 C         -0.2931171417       -4.9438221481       -0.3516030461
 C         -0.0683631577       -5.0742467643        1.1228067316
 H         -0.4743869316       -5.9305595450        1.6396503296
 H          0.8781863693       -4.7306242841        1.5134009035
 H         -0.8774293147       -5.6969241365       -0.8580389626
 H          0.5059011881       -4.5377809953       -0.9516142704
 H         -2.0700314944       -4.2286500771        0.7293640457
