  62
        -98.94020855
 C         -1.8874922303       -1.4069571179        0.2003482966
 C         -1.7187124946       -0.0232232959       -0.0246130297
 C         -2.8951201804        0.8377957625        0.2121935664
 C         -4.0460195675        0.2656829295        0.6124527237
 C         -5.3735826897        0.9288793432        0.8648433362
 C         -6.1101582180        1.2912767430       -0.4356483515
 C         -5.2337459676        1.9074011843       -1.5233928579
 H         -4.4169618899        1.2218730375       -1.7572096819
 H         -5.8433910211        2.0028068964       -2.4259172867
 C         -4.6632932974        3.2857932315       -1.1980938742
 H         -4.1247847618        3.6313089933       -2.0843599929
 H         -5.4871740133        3.9804136855       -1.0190694955
 C         -3.7079616318        3.3497899570       -0.0051331352
 H         -4.2536670620        3.3114496629        0.9337374503
 H         -3.2137015121        4.3252264249       -0.0373444495
 C         -2.6000147354        2.3009522910       -0.0158999512
 H         -2.0661706734        2.3531601616       -0.9716705286
 H         -1.8593738509        2.5715661990        0.7467929033
 H         -6.5467598140        0.3754377867       -0.8415439073
 H         -6.9258623349        1.9739234355       -0.1918400688
 H         -5.9824720384        0.2121287081        1.4201764076
 H         -5.2391683068        1.8048644683        1.4924437810
 O         -4.1632853842       -1.0794473252        0.8086782659
 C         -3.1031443880       -1.9435413248        0.6209462841
 O         -3.3582344191       -3.1411939496        0.8615823599
 H          1.9062561389       -1.8729924116       -0.7654206476
 C          1.7204986227       -1.7198819012        0.2839346772
 C          0.4572100280       -1.9145943659        0.8184743143
 C          0.2710413426       -1.7068209875        2.1836803957
 C          1.3180021997       -1.2996053255        2.9865733092
 C          2.5730659390       -1.0819581319        2.4440345038
 C          2.7721505882       -1.2935429901        1.0858794703
 N          4.0438368816       -1.1112238692        0.5123801068
 S          4.2491562835       -0.1208508488       -0.8216721026
 O          3.4577045567       -0.6046056517       -1.9222679621
 O          5.6808612594       -0.0898757766       -1.0299289126
 C          3.6974365184        1.4922159195       -0.2951163679
 C          2.3458591003        1.7609412569       -0.2157727351
 C          1.9433904414        3.0068980667        0.2411180966
 C          2.8856093491        3.9542366956        0.6087644500
 C          4.2397359848        3.6657954661        0.5246246308
 C          4.6509129479        2.4229086407        0.0726704080
 H          5.6919237005        2.1563833495       -0.0147288650
 H          4.9728100639        4.4033150894        0.8095835984
 H          2.5626678752        4.9212105327        0.9615243849
 H          0.8874728952        3.2172583548        0.3033597552
 H          1.6173220025        1.0187409192       -0.5008046171
 H          4.7687206965       -0.9108935569        1.1873219070
 H          3.3916469186       -0.7564689255        3.0680287885
 H          1.1561587812       -1.1425387064        4.0423551533
 H         -0.7126672106       -1.8678344539        2.6044661732
 C         -0.7219340449       -2.3552523073       -0.0142415448
 H         -1.0557699888       -3.3360908097        0.3552918361
 C         -0.4099323640       -2.4750974024       -1.4912974549
 C          0.2154553295       -3.7256636826       -2.0292083140
 C         -1.2188076637       -3.4142668528       -2.3321867932
 H         -1.4818770231       -3.1130735294       -3.3351966517
 H         -1.9852014213       -3.9902687400       -1.8336846730
 H          0.9418606223       -3.6356793928       -2.8231091706
 H          0.4244337969       -4.5208850974       -1.3294867599
 H         -0.1196558706       -1.5308879479       -1.9390402818
 O         -0.6332290828        0.4845629797       -0.4095410305
