  62
        -98.94514235
 C         -1.9484134698       -1.0034874697        0.0059172604
 C         -2.6274404896       -0.2521438093        0.9937475602
 C         -3.2040733093        1.0205207607        0.5486904299
 C         -3.0120575593        1.4317569803       -0.7181165102
 C         -3.5047077190        2.7230259802       -1.3133378306
 C         -4.9575271290        2.6726148804       -1.8064755405
 C         -6.0181974490        2.6484892809       -0.7051831805
 H         -5.8360239089        3.4686048411       -0.0100004708
 H         -6.9812260990        2.8349943510       -1.1843550806
 C         -6.0990265193        1.3241686212        0.0667245598
 H         -5.5926410995        0.5404752209       -0.5012541699
 H         -7.1443099194        1.0237365714        0.1663954099
 C         -5.5063995993        1.3742638514        1.4748448398
 H         -5.5837745195        0.3770322616        1.9153089101
 H         -6.0870575191        2.0618901317        2.0936174396
 C         -4.0331587392        1.8004124111        1.5244033397
 H         -3.9425887990        2.8692760411        1.3306256894
 H         -3.6486310692        1.5939008813        2.5265379497
 H         -5.0774730992        1.7968677802       -2.4482413703
 H         -5.1222528289        3.5605569103       -2.4210410108
 H         -2.8563229790        2.9363324899       -2.1660700207
 H         -3.3923938088        3.5273623604       -0.5853777008
 O         -2.3059078394        0.7059214399       -1.6244219500
 C         -1.7599717097       -0.5252095701       -1.2914931297
 O         -1.1473588298       -1.0810439905       -2.2219344996
 O         -2.7367360097       -0.6232317189        2.1950275203
 C         -1.3185009000       -2.3297878797        0.3982234608
 C          0.1805507500       -2.1862566601        0.3095380707
 C          0.9948253598       -2.9795410405       -0.4865270891
 C          2.3566094599       -2.7370829008       -0.5562175092
 C          2.9331222001       -1.7057174107        0.1626283205
 C          2.1274953503       -0.9138838503        0.9705955303
 C          0.7686928702       -1.1627352200        1.0443994904
 H          0.1424990204       -0.5353040297        1.6679739903
 N          2.7106476605        0.1620145298        1.6887568900
 S          3.0032196108        1.5138476995        0.7212987496
 O          3.1740104510        2.6168401397        1.6428077493
 O          1.9746472508        1.6761629794       -0.2836070304
 C          4.5619365507        1.1327130189       -0.0450457403
 C          5.6959689607        1.1353361789        0.7439499697
 C          6.9142988106        0.8216146285        0.1631887898
 C          6.9762943305        0.5118839481       -1.1875586301
 C          5.8283010505        0.5151095381       -1.9654891001
 C          4.6059275906        0.8279605185       -1.3910501002
 H          3.6855411206        0.8379694286       -1.9533938602
 H          5.8777073404        0.2735136278       -3.0150756401
 H          7.9252960405        0.2670506978       -1.6378575301
 H          7.8093404106        0.8185421385        0.7640237898
 H          5.5998160207        1.3876214592        1.7867655996
 H          2.1354154406        0.4576955601        2.4669222200
 H          3.9918814601       -1.5115509609        0.1086849105
 H          2.9763987897       -3.3577872411       -1.1848432990
 H          0.5609045996       -3.7783507005       -1.0648705688
 H         -1.5857850901       -2.4769336394        1.4551369108
 C         -1.8826213203       -3.4744467598       -0.4138046689
 C         -1.8340858306       -4.8700461197        0.1305247415
 C         -3.1411367204       -4.1418719295        0.0508209513
 H         -3.8627079205       -4.4523144595       -0.6897993286
 H         -3.5852448903       -3.7826479091        0.9678330412
 H         -1.6600279907       -5.6853079699       -0.5549267583
 H         -1.3910875706       -5.0098852195        1.1048682915
 H         -1.7575490503       -3.3331560302       -1.4809341689
