  62
        -98.93420953
 C         -1.8248152077       -0.6764836875        0.0830404240
 C         -2.3933106694        0.5963420590        0.3367358961
 C         -3.8146148937        0.7808062869       -0.0033703072
 C         -4.5027877200       -0.2495006783       -0.5288051045
 C         -5.9367171550       -0.3548664148       -1.0048696754
 C         -6.9585258704        0.7215081634       -0.6485251146
 C         -7.3231815591        0.7908144709        0.8340809856
 H         -7.9756681811        1.6534488514        0.9856636013
 H         -7.8914005341       -0.1058636292        1.0940823987
 C         -6.1445325438        0.8840819337        1.7998619816
 H         -5.5360209234       -0.0194421670        1.7251286485
 H         -6.5467836626        0.9179482201        2.8160635404
 C         -5.2437486478        2.1040647907        1.6170562190
 H         -4.5479170446        2.1293374487        2.4601915798
 H         -5.8450252923        3.0146653657        1.6536260056
 C         -4.4052447345        2.1212240961        0.3271529997
 H         -4.9791934443        2.5058617404       -0.5127143573
 H         -3.5598388694        2.7980553430        0.4829326410
 H         -7.8707514945        0.4796533642       -1.2007736313
 H         -6.6235530905        1.6912885762       -1.0045838886
 H         -6.2983829091       -1.3240639643       -0.6469221428
 H         -5.8812320877       -0.4315455889       -2.0963614826
 O         -3.9114709923       -1.4546920076       -0.7665221239
 C         -2.5768421979       -1.7080101899       -0.4780119751
 O         -2.2188020336       -2.8637285487       -0.7656259341
 O         -1.7351128762        1.5498124063        0.8352147277
 C         -0.3622450013       -0.8580590240        0.4499039949
 C          0.5228170763       -0.5373249197       -0.7271619836
 C          0.3401701274       -1.1690866957       -1.9545151332
 C          1.1493954052       -0.8549203376       -3.0301852019
 C          2.1554407739        0.0871992224       -2.9041109167
 C          2.3404158632        0.7303418676       -1.6857566545
 C          1.5281777933        0.4108817818       -0.6045575848
 H          1.6627515476        0.9394267401        0.3271676346
 N          3.3374857081        1.7013467434       -1.5444727057
 S          4.0945626073        1.9892038165       -0.0906094833
 O          3.2313622625        2.7244292926        0.7988305286
 O          5.3280954299        2.6499173747       -0.4607663665
 C          4.4631675021        0.3874393846        0.6048843559
 C          4.2090205221        0.1624501086        1.9425163187
 C          4.5338280653       -1.0685485091        2.4912422804
 C          5.0996321130       -2.0514656222        1.6943149064
 C          5.3473863205       -1.8110152458        0.3516035529
 C          5.0320066677       -0.5799013477       -0.2001842621
 H          5.2229959453       -0.3647466330       -1.2386593948
 H          5.7844138258       -2.5784675807       -0.2664196832
 H          5.3449542126       -3.0105825449        2.1215976644
 H          4.3381066662       -1.2564076217        3.5347166193
 H          3.7552789212        0.9498108071        2.5234296059
 H          3.9484778940        1.8237570456       -2.3373344357
 H          2.7836353092        0.3354827942       -3.7458720583
 H          0.9975916654       -1.3507702475       -3.9770211270
 H         -0.4439655045       -1.9044646499       -2.0524371238
 H         -0.1706317450       -0.0924449603        1.2188886584
 C         -0.0637016321       -2.2147442474        1.0735082370
 C          0.8014593646       -3.2540472830        0.4318381111
 C          1.3052708884       -2.4943359592        1.6192600661
 H          1.3914065974       -3.0042983036        2.5664281156
 H          2.0652397818       -1.7466290868        1.4473511495
 H          0.5113749304       -4.2859126960        0.5565417471
 H          1.2335129557       -3.0375420966       -0.5317889276
 H         -0.9033822078       -2.5848182969        1.6528717280
