  62
        -98.94315331
 C         -1.3648994266       -1.9080257186        0.3549564425
 C         -0.2202122786       -1.6235410941        1.1412696901
 C          1.0071417449       -2.3376953957        0.7578069194
 C          1.0249815477       -3.1077200932       -0.3431667459
 C          2.2020188714       -3.8876691461       -0.8635270589
 C          3.1890140001       -3.0495382779       -1.6872135206
 C          4.0751572449       -2.1021142013       -0.8773905911
 H          4.5389520672       -2.6507390096       -0.0566932707
 H          4.8752085105       -1.7697813818       -1.5420358698
 C          3.3502457552       -0.8647226458       -0.3293435672
 H          3.9684527606        0.0201725222       -0.4992509214
 H          2.4196733624       -0.7054121233       -0.8806007851
 C          3.0428757339       -0.9146849296        1.1669517498
 H          3.9774723632       -0.9018488205        1.7325858103
 H          2.4769553054       -0.0173481375        1.4268633188
 C          2.2256692475       -2.1339446987        1.6081957367
 H          2.8472327545       -3.0292768074        1.5916090446
 H          1.8863754628       -1.9601868031        2.6325599215
 H          2.6263072240       -2.4739031268       -2.4265658262
 H          3.8355060219       -3.7455134423       -2.2274898832
 H          2.7277718688       -4.3585359513       -0.0319381492
 H          1.7946230947       -4.6714756583       -1.5059464980
 O         -0.0740123111       -3.2870669049       -1.1245746890
 C         -1.2826470214       -2.7013330778       -0.7915660956
 O         -2.2145920341       -2.9695141321       -1.5794087818
 H         -0.9237327511        0.6210501949        0.1685114019
 C         -1.8624286315        0.8459740469       -0.3107551775
 C         -2.9175624348       -0.0459821562       -0.1870492553
 C         -4.1186875985        0.2468374096       -0.8212155858
 C         -4.2537731379        1.4072298909       -1.5635202003
 C         -3.1902848906        2.2798012936       -1.7068640985
 C         -1.9815431518        1.9908651507       -1.0824915893
 N         -0.8781165087        2.8491312867       -1.2079221574
 S          0.6707350026        2.2377322417       -1.4192257451
 O          1.2903142856        3.1062296793       -2.4005646116
 O          0.6444874144        0.8331444890       -1.7546397357
 C          1.4936966959        2.4993591856        0.1404928163
 C          2.8686982328        2.6361464773        0.1035181575
 C          3.5621697244        2.8196615870        1.2883029478
 C          2.8712459848        2.8634592916        2.4897208936
 C          1.4916757869        2.7360984992        2.5102789642
 C          0.7916835789        2.5545260581        1.3267724153
 H         -0.2807052718        2.4535065711        1.3274119150
 H          0.9518350397        2.7688496793        3.4428081822
 H          3.4099446089        2.9992102150        3.4141405545
 H          4.6350495361        2.9236928199        1.2711704252
 H          3.3621971621        2.6041050823       -0.8545611514
 H         -1.0287005892        3.6423648859       -1.8140730231
 H         -3.2881272516        3.1736713887       -2.3041594565
 H         -5.1912181185        1.6261333544       -2.0518892841
 H         -4.9407887699       -0.4500759403       -0.7493547565
 C         -2.7368403414       -1.3074790775        0.6186898834
 H         -3.4609380663       -2.0458009862        0.2366014944
 C         -3.0284840483       -1.1032944394        2.0991457723
 C         -3.0500010449        0.2440362348        2.7494680646
 C         -4.3306151859       -0.5028649689        2.5399007800
 H         -4.8288299698       -0.9299154311        3.3969785769
 H         -4.9995512974       -0.1405193308        1.7744029269
 H         -2.6459119165        0.3250589146        3.7464280261
 H         -2.8579151390        1.1061267759        2.1297911743
 H         -2.6435211472       -1.9203028995        2.7000192069
 O         -0.1986850628       -0.8350436052        2.1196991931
