  62
        -98.94152203
 C         -2.5685846700       -0.0266456145        0.0971960319
 C         -2.5171947959        1.1232740193        0.9233592989
 C         -2.0651706310        2.3630518199        0.2857057596
 C         -1.7163899571        2.3527505133       -1.0133181966
 C         -1.2074616962        3.5268336931       -1.8039784808
 C          0.2997001014        3.7620456681       -1.6316881641
 C          0.7087746476        4.3856915355       -0.2964274127
 H          1.7399464966        4.7275995264       -0.4048776318
 H          0.0914075422        5.2629005425       -0.0976127964
 C          0.6378042557        3.4210374942        0.8956587112
 H          1.5418783303        3.5216758114        1.5021050512
 H          0.6246921832        2.3902008828        0.5319516974
 C         -0.5534009346        3.6412633467        1.8288905455
 H         -0.4546821579        4.6096212656        2.3259347486
 H         -0.5272006697        2.8631822468        2.5967937007
 C         -1.9239722341        3.5854433960        1.1421368681
 H         -2.6918372832        3.5370346080        1.9187516975
 H         -2.0826426414        4.4849548595        0.5473626609
 H          0.8155311093        2.8060084597       -1.7533290917
 H          0.6227058788        4.4269319434       -2.4363091311
 H         -1.4055596606        3.3042811184       -2.8546059361
 H         -1.7560559842        4.4278077090       -1.5274067845
 O         -1.7997086857        1.2366174740       -1.7810275073
 C         -2.1691778445        0.0136456251       -1.2407813314
 O         -2.1175990063       -0.9291865969       -2.0532299454
 H         -0.2916400480       -0.8615022638        0.8465368459
 C         -0.4731628193       -1.8794552914        0.5309734125
 C         -1.7821927423       -2.3389565588        0.4354247026
 C         -1.9910624495       -3.6576446902        0.0590177132
 C         -0.9131395167       -4.4807483047       -0.2267873164
 C          0.3828129633       -4.0052494022       -0.1734330573
 C          0.6015146300       -2.6795112502        0.1920618681
 N          1.8989139871       -2.1363074387        0.1701824848
 S          2.1659800268       -0.5054150858        0.4412439540
 O          1.9464261034       -0.1618225646        1.8316207729
 O          1.4304040138        0.2537821894       -0.5375976713
 C          3.9095985373       -0.4289478746        0.0799132973
 C          4.8245174002       -0.4080605611        1.1150502985
 C          6.1774730180       -0.3767262401        0.8145158385
 C          6.5902238382       -0.3682652794       -0.5091614910
 C          5.6600606182       -0.3862938319       -1.5381679600
 C          4.3063581736       -0.4170945433       -1.2437763946
 H          3.5460516840       -0.4231273495       -2.0079112147
 H          5.9837398699       -0.3758500972       -2.5664490176
 H          7.6432528567       -0.3441816346       -0.7410596805
 H          6.9024136459       -0.3585086335        1.6122313716
 H          4.4556293640       -0.4063813012        2.1280947934
 H          2.6274344518       -2.7376123370        0.5236390548
 H          1.2178246295       -4.6401384283       -0.4242271385
 H         -1.0896880363       -5.5064303969       -0.5135668615
 H         -2.9948225388       -4.0402421404       -0.0274635316
 C         -2.8818154813       -1.3566431178        0.7609857794
 H         -2.8204430510       -1.1352641035        1.8414689056
 C         -4.2823589491       -1.8961047395        0.5136048179
 C         -5.3851534510       -1.0016570450        0.0336704399
 C         -4.8418311773       -2.0690841305       -0.8655590304
 H         -5.4589293984       -2.9336175556       -1.0623611939
 H         -4.2161986943       -1.7750910672       -1.6930933586
 H         -5.1341399093        0.0262075313       -0.1862713893
 H         -6.3705330563       -1.1311188279        0.4559102354
 H         -4.5645567745       -2.6440672827        1.2484675495
 O         -2.8250717626        1.1091845848        2.1475435245
