  62
        -98.94042472
 C         -2.0626775183       -1.0271059465        0.5300872529
 C         -2.7618887484       -0.0509853446        1.2860655235
 C         -4.1789684319        0.1346128193        0.9604190991
 C         -4.7448522519       -0.6228066918        0.0034908747
 C         -6.1858206077       -0.5773665736       -0.4270171139
 C         -6.4942407931        0.5157661401       -1.4591744453
 C         -6.4934312818        1.9440227299       -0.9128141735
 H         -6.9345476898        2.5816074988       -1.6816070059
 H         -7.1398771993        1.9970438722       -0.0361955853
 C         -5.1009308892        2.4867662688       -0.5617617139
 H         -4.3368935414        1.8707829965       -1.0419304303
 H         -4.9922173587        3.4975883575       -0.9614784577
 C         -4.8067474797        2.5591786155        0.9367661873
 H         -3.7833844658        2.9209486634        1.0669319412
 H         -5.4804874926        3.2782943590        1.4081608853
 C         -4.9321355210        1.2178653736        1.6712623557
 H         -5.9817376425        0.9448169842        1.7792224742
 H         -4.4944324312        1.3296041250        2.6663514309
 H         -5.7734581568        0.4382642552       -2.2764275081
 H         -7.4851494565        0.3069990102       -1.8690108668
 H         -6.4066609017       -1.5477216136       -0.8769645901
 H         -6.8251602479       -0.4456218139        0.4464099078
 O         -4.0482666540       -1.5598158954       -0.6885343585
 C         -2.6889560565       -1.7683008652       -0.4731409817
 O         -2.1938254564       -2.6265468978       -1.2248038995
 O         -2.2220169249        0.6268153204        2.2019702364
 C         -0.5915773943       -1.2044584336        0.8590882151
 C          0.2548779279       -0.2740482473        0.0289473545
 C          0.1232989173       -0.2228980692       -1.3552027606
 C          0.9139078128        0.6292630040       -2.1046878966
 C          1.8533009316        1.4410995496       -1.4927624095
 C          1.9958497854        1.3936011065       -0.1128678870
 C          1.1981989360        0.5399862591        0.6384020316
 H          1.3017573474        0.5204073911        1.7148741796
 N          2.9779260885        2.1938703486        0.5060787945
 S          4.5569530395        1.9049181851        0.0134604961
 O          5.3930958159        2.4266873016        1.0699780441
 O          4.7565032605        2.4685836212       -1.2967075545
 C          4.6580884633        0.1261102797       -0.0547783410
 C          4.8445870341       -0.5639920690        1.1268086180
 C          4.8211075073       -1.9489636776        1.1052764692
 C          4.5973924398       -2.6166823358       -0.0892771070
 C          4.4139536074       -1.9093206438       -1.2668587569
 C          4.4439438390       -0.5239403456       -1.2534794868
 H          4.3092795286        0.0609917205       -2.1481721056
 H          4.2402581677       -2.4318053253       -2.1937253179
 H          4.5620276513       -3.6941657351       -0.1015809638
 H          4.9668144816       -2.5028660193        2.0187669237
 H          5.0159554101       -0.0080448626        2.0349099201
 H          2.9250102658        2.1811380534        1.5149771212
 H          2.4825332254        2.1061029263       -2.0621120744
 H          0.7983905053        0.6614882241       -3.1775847173
 H         -0.6013607294       -0.8636465467       -1.8348695095
 H         -0.5030433368       -0.8795325831        1.9080777602
 C         -0.1164437284       -2.6493952068        0.7897243345
 C          0.8707319013       -3.1499650252       -0.2178055572
 C          1.2812841100       -2.9926925198        1.2132530276
 H          1.4380770394       -3.8773057064        1.8110489858
 H          1.9424237123       -2.1726599823        1.4511036743
 H          0.7169320366       -4.1425553671       -0.6117623609
 H          1.2660110598       -2.4520100108       -0.9387721571
 H         -0.8973858702       -3.3444542633        1.0795221062
