  62
        -98.94292458
 C         -2.1217387632       -1.5083854751        0.1187087393
 C         -1.7277774797       -0.3585416040       -0.6113800755
 C         -2.7685060679        0.6654931308       -0.7901463913
 C         -4.0089460605        0.4611924877       -0.3143584579
 C         -5.1795013827        1.3958795398       -0.4558727957
 C         -5.2303188855        2.4987053589        0.6103870145
 C         -4.1779692224        3.5979748029        0.4596708548
 H         -4.2122247100        3.9950172606       -0.5553407218
 H         -4.4623539237        4.4070294900        1.1354132132
 C         -2.7472367097        3.1536093683        0.7950328501
 H         -2.7799057658        2.2234232676        1.3670581437
 H         -2.2738545329        3.9028003708        1.4333044964
 C         -1.8400810036        2.9558203297       -0.4195775547
 H         -0.8720409972        2.5930358207       -0.0651337287
 H         -1.6848819750        3.9147619314       -0.9187320916
 C         -2.3721642310        1.9513153164       -1.4497443402
 H         -3.2137348984        2.3774066586       -1.9954817334
 H         -1.5713824446        1.7265505982       -2.1582181332
 H         -5.1355485185        2.0360716176        1.5956453674
 H         -6.2190414400        2.9602245968        0.5546601098
 H         -6.0792749259        0.7839674473       -0.3606569605
 H         -5.1706704185        1.8473709596       -1.4483796989
 O         -4.3542513710       -0.6690554135        0.3587436470
 C         -3.4153364647       -1.6511655585        0.6289489686
 O         -3.8501306247       -2.5938181643        1.3210123323
 O         -0.5840703173       -0.1804986712       -1.1007847605
 C         -1.1438660385       -2.6237658497        0.4510012987
 C          0.1575290692       -2.0253084913        0.9227898401
 C          0.1951539526       -1.3812432120        2.1561548526
 C          1.3580823064       -0.7868795895        2.6081218021
 C          2.5068501707       -0.8150844767        1.8367773428
 C          2.4739864278       -1.4417457279        0.5983913266
 C          1.3081815129       -2.0508629436        0.1525855472
 H          1.2922389563       -2.5161793758       -0.8203106703
 N          3.6257107513       -1.4635933418       -0.2036118809
 S          4.6070664160       -0.1132109252       -0.2606943854
 O          5.3019063556       -0.2129397426       -1.5256688385
 O          5.4482751477       -0.0813718224        0.9113552312
 C          3.5288881890        1.3083128538       -0.2631078605
 C          3.6700399712        2.2695495666        0.7171837009
 C          2.8417612361        3.3797778203        0.6920812463
 C          1.8931981775        3.5095405427       -0.3102429546
 C          1.7652919494        2.5356567119       -1.2885829833
 C          2.5882625098        1.4222922550       -1.2668936724
 H          2.5014092520        0.6501613355       -2.0136281034
 H          1.0217478588        2.6313380998       -2.0630457674
 H          1.2481803096        4.3739936417       -0.3300092736
 H          2.9380833799        4.1384495616        1.4521179303
 H          4.4234088588        2.1302285961        1.4757282278
 H          3.4765553800       -1.8477853698       -1.1247997173
 H          3.4241734554       -0.3634669267        2.1776426726
 H          1.3723214203       -0.2938799888        3.5683895163
 H         -0.7059435329       -1.3458835593        2.7537529160
 H         -1.5991326038       -3.1586322963        1.3002660848
 C         -0.9630424391       -3.6495581578       -0.6582067320
 C         -2.1213765549       -4.0540751634       -1.5189153484
 C         -0.9813289062       -3.2838396062       -2.1109094623
 H         -0.3073133486       -3.8026479909       -2.7775655753
 H         -1.1376458030       -2.2480014798       -2.3671198302
 H         -2.2305018502       -5.0966144645       -1.7773616156
 H         -3.0604340411       -3.5432937349       -1.3627758925
 H         -0.2830304722       -4.4437351028       -0.3639799299
