  62
        -98.94093777
 C         -2.3063132357        0.8405663955        0.1555594123
 C         -3.5929451566        1.2182967636       -0.2980625860
 C         -4.7172372402        0.4704855347        0.2747019507
 C         -4.4831204394       -0.4899266672        1.1876562498
 C         -5.5267093194       -1.3234011733        1.8811408539
 C         -5.9874882018       -2.5457581194        1.0750570547
 C         -6.8748600023       -2.2336138429       -0.1306529254
 H         -7.2987489969       -3.1808589078       -0.4698670008
 H         -7.7042470206       -1.5999797646        0.1848115380
 C         -6.1381266558       -1.5740715888       -1.3048026952
 H         -5.0615267635       -1.7170959869       -1.1850555915
 H         -6.4242228332       -2.0660982122       -2.2371162390
 C         -6.4236224847       -0.0817621833       -1.4735858590
 H         -7.4764227636        0.0639691988       -1.7249757496
 H         -5.8234530510        0.2902522107       -2.3078503304
 C         -6.0942889807        0.7668692427       -0.2384300704
 H         -6.1206851164        1.8199433990       -0.5286190027
 H         -6.8358904854        0.5996378824        0.5421487692
 H         -6.5487517815       -3.1908741054        1.7549597809
 H         -5.1047402118       -3.0987326166        0.7454870361
 H         -6.3881997670       -0.7017593279        2.1265278255
 H         -5.0745337072       -1.6748827513        2.8110486767
 O         -3.2307491473       -0.8101569150        1.6121404368
 C         -2.1123255934       -0.1719277731        1.0945126306
 O         -1.0286568383       -0.5879364020        1.5494841041
 O         -3.7904609217        2.1333760813       -1.1414547260
 C         -1.0919200937        1.5605236800       -0.4011107089
 C         -0.1510747917        0.5697413323       -1.0400946035
 C         -0.6574073120       -0.3225192483       -1.9824165996
 C          0.1625551008       -1.2592082653       -2.5792988656
 C          1.5040259788       -1.3283123994       -2.2461111557
 C          2.0240799599       -0.4327249059       -1.3199262480
 C          1.1990507185        0.5174569352       -0.7325165119
 H          1.6234951048        1.1957974020       -0.0131355551
 N          3.3990931697       -0.4542877817       -1.0137312055
 S          3.9322651928       -0.3121256210        0.5822006485
 O          3.4850601181       -1.4434872638        1.3659185503
 O          3.6026642148        0.9954742104        1.0863491870
 C          5.6919781522       -0.4169530907        0.3073478380
 C          6.3340174489        0.6835875830       -0.2281810188
 C          7.6963316894        0.6125930006       -0.4705677746
 C          8.3907686563       -0.5514173597       -0.1752951680
 C          7.7334871477       -1.6468943257        0.3634924659
 C          6.3701238774       -1.5826769635        0.6069235514
 H          5.8187086701       -2.4064401829        1.0311577407
 H          8.2762773901       -2.5492264722        0.5948634611
 H          9.4514130804       -0.6037918846       -0.3638901752
 H          8.2112152022        1.4631535293       -0.8873136264
 H          5.7548017667        1.5685317146       -0.4333283009
 H          3.8598590526       -1.2510139581       -1.4356566541
 H          2.1432656071       -2.0693558578       -2.7024054496
 H         -0.2456333425       -1.9487389495       -3.3031613010
 H         -1.7089351563       -0.2755265346       -2.2325172669
 H         -1.4810451519        2.2247406486       -1.1876928581
 C         -0.4438466500        2.4086997508        0.6722617637
 C          0.3164310965        3.6452107574        0.3000057839
 C         -1.0152160548        3.7596685302        0.9773734592
 H         -1.0472054622        4.0846866661        2.0064956267
 H         -1.8628487687        4.0815440283        0.3900378326
 H          1.2054977300        3.8874302466        0.8627363037
 H          0.3747037676        3.8973641897       -0.7480219377
 H         -0.0799986344        1.8191757931        1.5078036744
