  62
        -98.94258000
 C          1.6919004310        1.3965493118        0.1262417560
 C          2.8167056628        0.8536901778        0.7958495122
 C          3.4310367094       -0.3312694769        0.1813274943
 C          2.8864059011       -0.8476726246       -0.9351700354
 C          3.3632419467       -2.0927279203       -1.6251588093
 C          2.6428428310       -3.3390489206       -1.0908034107
 C          2.6135208306       -3.4299021784        0.4347543519
 H          2.0135870841       -2.6068775359        0.8311898004
 H          2.0980010359       -4.3567096428        0.6968062595
 C          3.9984197704       -3.4096112596        1.0969973710
 H          4.0322192106       -4.1873858639        1.8629085421
 H          4.7650616085       -3.6488971008        0.3591434347
 C          4.3536280421       -2.0903406924        1.7852760652
 H          3.5468133055       -1.8013407626        2.4640665133
 H          5.2470680109       -2.2542713502        2.3937027890
 C          4.6457876510       -0.9083549807        0.8520935547
 H          5.3924240964       -1.2014351522        0.1111198620
 H          5.0644218923       -0.1020870472        1.4617740668
 H          1.6112100165       -3.3308133091       -1.4500176865
 H          3.1346171874       -4.2240476500       -1.4984778719
 H          3.1601890791       -1.9949480008       -2.6928773293
 H          4.4370282493       -2.1931776396       -1.4789723535
 O          1.7946651197       -0.3154446539       -1.5374281990
 C          1.1609155201        0.8124329762       -1.0263969068
 O          0.1660641602        1.1685454898       -1.6792200385
 O          3.2791601817        1.3306183045        1.8674914552
 C          0.9953166890        2.5875263103        0.7620465632
 C         -0.4894783513        2.3246813546        0.8108821819
 C         -1.4490558347        3.1666315291        0.2669785943
 C         -2.7898595295        2.8230985825        0.3124834578
 C         -3.2018050583        1.6378184142        0.8918086866
 C         -2.2486956080        0.7887884026        1.4401957966
 C         -0.9105064619        1.1423588769        1.4087150447
 H         -0.1700570236        0.4749727005        1.8340591684
 N         -2.6510203331       -0.4360039408        2.0088716622
 S         -3.6097470730       -1.4247641176        1.0522202787
 O         -4.9736000857       -0.9616298227        1.1137452136
 O         -3.3762103357       -2.7644434947        1.5457533061
 C         -2.9824547403       -1.2500290341       -0.6070321325
 C         -3.7269848368       -0.5777253997       -1.5535152482
 C         -3.2061619148       -0.4230555612       -2.8278020802
 C         -1.9570163469       -0.9393830362       -3.1305072155
 C         -1.2226221806       -1.6149487748       -2.1691460247
 C         -1.7356613201       -1.7696277827       -0.8929568056
 H         -1.1893733788       -2.2902485229       -0.1210784366
 H         -0.2440184319       -2.0000583197       -2.4074231996
 H         -1.5452267844       -0.8093106164       -4.1186179486
 H         -3.7719527145        0.1057784697       -3.5778272718
 H         -4.6948482227       -0.1930305555       -1.2764226422
 H         -1.8835340650       -0.9680971967        2.3932900640
 H         -4.2399240888        1.3491282750        0.9224409823
 H         -3.5244226644        3.4846151383       -0.1206552484
 H         -1.1476394587        4.0801809598       -0.2179313706
 H          1.3719134988        2.6024626736        1.7991102303
 C          1.3575698119        3.9340157241        0.1551635657
 C          2.6649568290        4.1361413029       -0.5493914916
 C          1.3840086053        4.1650434143       -1.3250012089
 H          1.0364790629        5.1165647467       -1.7002126972
 H          1.1471168455        3.3295214249       -1.9640546148
 H          3.1948790275        5.0634517818       -0.3905261689
 H          3.3121090056        3.2782013525       -0.6609593453
 H          1.0148247689        4.7600640639        0.7708841664
