  62
        -98.93513961
 C         -1.7661642085       -1.6487755204        0.2848324102
 C         -2.1198422688       -0.6452400409        1.2222626906
 C         -3.0677513496        0.3872248186        0.7706502913
 C         -3.5529367600        0.3220798587       -0.4807417386
 C         -4.5141756108        1.2748319383       -1.1361210979
 C         -3.7636430718        2.3370784090       -1.9562492479
 C         -3.3111622423        3.5598221791       -1.1585537577
 H         -2.6706034729        4.1566022897       -1.8122511077
 H         -4.1828861025        4.1687323085       -0.9102293272
 C         -2.5449131316        3.2475595992        0.1299417620
 H         -1.8479621512        2.4285882796       -0.0554555585
 H         -1.9492272421        4.1256850794        0.3866421520
 C         -3.4629814310        2.9050183182        1.3138648922
 H         -3.1826905511        3.5171692781        2.1732814023
 H         -4.4850548812        3.1838007877        1.0574962426
 C         -3.4351015799        1.4389407281        1.7809083117
 H         -4.4086976296        1.1849315474        2.2122764120
 H         -2.7005306895        1.3202899683        2.5836327514
 H         -2.8969017816        1.8554227397       -2.4171758083
 H         -4.4122150223        2.6798376389       -2.7650569176
 H         -5.1275822507        0.6804055082       -1.8167449679
 H         -5.1595363409        1.7369340377       -0.3945960776
 O         -3.1712098797       -0.6419779708       -1.3596855490
 C         -2.2517510490       -1.6298955703       -1.0229004396
 O         -1.9746183689       -2.3894063998       -1.9691286000
 O         -1.6605431384       -0.6169716810        2.3943158505
 C         -0.7846178077       -2.7020106700        0.7697791595
 C          0.6329589619       -2.2077782290        0.6259530292
 C          1.5669491424       -2.3819964988        1.6398570588
 C          2.8579804521       -1.9015333979        1.5000523885
 C          3.2349198312       -1.2172080073        0.3588847285
 C          2.3014144708       -1.0208463576       -0.6512642811
 C          1.0177745211       -1.5290386884       -0.5213043508
 H          0.3012234907       -1.3867445386       -1.3189347305
 N          2.6558861099       -0.2547351970       -1.7766999610
 S          3.3305546091        1.2468068633       -1.4429045607
 O          2.8493362982        2.1275214533       -2.4846117203
 O          4.7633365892        1.1108131941       -1.3536863413
 C          2.6821153593        1.7253894124        0.1516008297
 C          3.5591943495        2.0239242026        1.1744174194
 C          3.0504803998        2.3513728619        2.4209777897
 C          1.6798399198        2.3608420410        2.6255460902
 C          0.8104273996        2.0628188308        1.5875693204
 C          1.3134326294        1.7479213515        0.3362092401
 H          0.6570192292        1.5132338813       -0.4879761097
 H         -0.2547955603        2.0544818701        1.7536094608
 H          1.2804621000        2.5971940905        3.5989916904
 H          3.7231506999        2.5869795321        3.2297715296
 H          4.6176858795        1.9859598633        0.9746081890
 H          1.9107547796       -0.1679417073       -2.4530942007
 H          4.2296330409       -0.8197695167        0.2356908583
 H          3.5746383824       -2.0493056277        2.2928104882
 H          1.2709116030       -2.8818781692        2.5498898687
 H         -0.9841955073       -2.8031457504        1.8484376695
 C         -0.9940765871       -4.0695151099        0.1370476392
 C         -0.0759586871       -4.6432484290       -0.8959414513
 C         -0.0885913262       -5.2123621094        0.4891536585
 H         -0.5257237256       -6.1869234898        0.6444993483
 H          0.7611575238       -5.0013961791        1.1201745383
 H         -0.5194925170       -5.2086281290       -1.7010804014
 H          0.7778469524       -4.0578104584       -1.2004098115
 H         -2.0474815170       -4.3026270305        0.0207833995
