  62
        -98.93010666
 C          2.3812582595        0.7572163391        0.2032230996
 C          3.6136140994        0.8960496790        0.8857616898
 C          4.8368928895        0.4969299790        0.1632156299
 C          4.7153187197       -0.0061384908       -1.0791016001
 C          5.8013693598       -0.5148418107       -1.9894543700
 C          6.3197643497       -1.9020990808       -1.5776794501
 C          6.5660960495       -2.0793351910       -0.0817027701
 H          5.6387706694       -1.8834841710        0.4599685798
 H          6.8250314694       -3.1275842810        0.0899001698
 C          7.6863558894       -1.2203936211        0.5002037401
 H          7.8120933893       -1.5163885612        1.5448916801
 H          8.6186234195       -1.4454791010       -0.0225584398
 C          7.4590308695        0.2922666389        0.4606270603
 H          8.2017297394        0.7500526188        1.1205845504
 H          7.6424963196        0.6914192490       -0.5333136497
 C          6.0921155794        0.7434686689        0.9652701601
 H          6.1238456294        1.8265478589        1.1360697703
 H          5.9106746193        0.3037233688        1.9527161601
 H          5.5771381797       -2.6437309107       -1.8821994203
 H          7.2413184998       -2.1025795808       -2.1268191000
 H          5.3635205599       -0.5903477306       -2.9872514201
 H          6.6143622598        0.2035868292       -2.0380543398
 O          3.5030071298       -0.1611429507       -1.6829130803
 C          2.3133955197        0.2070179193       -1.0767584604
 O          1.3035194398       -0.0052431506       -1.7730795606
 O          3.6960761893        1.3336588489        2.0655092399
 C          1.1199251694        1.1671758191        0.9405047795
 C          0.0712898994        0.0891192991        0.8239895793
 C          0.3758631493       -1.1858586709        1.2946990692
 C         -0.5459205007       -2.2108603909        1.2128479589
 C         -1.7977804206       -1.9868919408        0.6672701388
 C         -2.1166484005       -0.7181912307        0.2056528789
 C         -1.1874375505        0.3125184292        0.2907592991
 H         -1.4450210204        1.2874546793       -0.0925521008
 N         -3.3838501704       -0.4870754007       -0.3551633913
 S         -4.7105291006       -1.1916790807        0.4157820385
 O         -4.5618620107       -1.0856646309        1.8498398285
 O         -4.8851524905       -2.5266814706       -0.1003224217
 C         -6.0390222904       -0.1452340206       -0.1473488116
 C         -6.4399453405        0.9137751593        0.6453086985
 C         -7.4568330804        1.7408709294        0.1951972684
 C         -8.0503522903        1.4979246296       -1.0344515717
 C         -7.6374084102        0.4308371296       -1.8184691817
 C         -6.6218030503       -0.4009211304       -1.3740867717
 H         -6.2748997702       -1.2464934204       -1.9448010817
 H         -8.1035496501        0.2439566298       -2.7723999418
 H         -8.8420021402        2.1426375696       -1.3822560417
 H         -7.7823261205        2.5689770194        0.8040109385
 H         -5.9570004906        1.0584396192        1.5984703986
 H         -3.5422412504        0.4872878294       -0.5704819612
 H         -2.5301007106       -2.7755848608        0.5974042886
 H         -0.2905886208       -3.1953346310        1.5764808189
 H          1.3546139593       -1.3648681310        1.7200572893
 H          1.4307291593        1.2162222490        1.9980879896
 C          0.6101102995        2.5545882691        0.5795611196
 C          1.5388055996        3.6075182992        0.0549790398
 C          0.4895766797        3.0221331893       -0.8392913104
 H         -0.3555542402        3.6403703793       -1.1058209604
 H          0.7947670398        2.3393743494       -1.6164960504
 H          1.4132179996        4.6214385291        0.4041377099
 H          2.5685834197        3.3281288991       -0.1138787500
 H         -0.1551597305        2.8949020991        1.2709975495
