  62
        -98.94075010
 C         -2.6516698890       -1.2151380866       -0.3547924999
 C         -2.2139751777       -0.0340065284       -1.0017089600
 C         -3.1756629593        1.0786565506       -1.0213232027
 C         -4.3845813251        0.9194943188       -0.4531659467
 C         -5.4364384146        1.9855025722       -0.3567367932
 C         -5.3031266095        2.7797450650        0.9500670892
 C         -3.8826249917        3.2687396961        1.2340299829
 H         -3.9155218657        3.8427705138        2.1626824850
 H         -3.2351525793        2.4069784270        1.4144861885
 C         -3.2742108519        4.1331478109        0.1209212455
 H         -2.7872780455        4.9978621879        0.5766834373
 H         -4.0648539974        4.5107295576       -0.5285985282
 C         -2.2167271116        3.4247061709       -0.7280384261
 H         -1.4679807796        2.9659239739       -0.0758186069
 H         -1.7039334908        4.1801177780       -1.3297423839
 C         -2.7432206489        2.3526713021       -1.6908331775
 H         -3.5539172617        2.7665208422       -2.2939306695
 H         -1.9224310549        2.0761232431       -2.3589327505
 H         -5.6157687738        2.1395445132        1.7781917583
 H         -5.9811212701        3.6339459765        0.9059626643
 H         -6.4158349127        1.5048737533       -0.3805177162
 H         -5.3489820993        2.6537175676       -1.2110685154
 O         -4.7724399704       -0.2333203826        0.1494187433
 C         -3.9143240516       -1.3157661203        0.2332985160
 O         -4.3851964999       -2.2981910191        0.8407368563
 O         -1.0852941434        0.0932989297       -1.5455854094
 C         -1.7352555539       -2.4222576205       -0.2272770179
 C         -0.5828309678       -2.0317012987        0.6658030527
 C         -0.8018576697       -1.9352048973        2.0376637733
 C          0.2037077651       -1.5093757387        2.8842475848
 C          1.4470774002       -1.1648096140        2.3818842341
 C          1.6717819194       -1.2491263980        1.0151094579
 C          0.6632946067       -1.6910613089        0.1668056510
 H          0.8467157644       -1.7377910713       -0.8947523819
 N          2.9328316182       -0.9071808106        0.4875333402
 S          3.6469863955        0.5139404739        1.0590216534
 O          4.2422558763        0.2387289052        2.3434868045
 O          2.6998023780        1.6062864482        1.0262708488
 C          4.9258925842        0.7520801098       -0.1583916601
 C          6.1515329850        0.1425898811        0.0304498491
 C          7.1335337977        0.3011634048       -0.9344298355
 C          6.8744023022        1.0605916666       -2.0656460983
 C          5.6393072275        1.6667573808       -2.2408249703
 C          4.6521992196        1.5112953253       -1.2803060524
 H          3.6802634274        1.9702550427       -1.3722435392
 H          5.4408483552        2.2581657573       -3.1202386298
 H          7.6400451199        1.1833538697       -2.8153101734
 H          8.0955809751       -0.1667222415       -0.8016158872
 H          6.3086156503       -0.4310973470        0.9287490162
 H          2.9140662433       -0.8981613914       -0.5240681098
 H          2.2351141241       -0.8144119068        3.0286418870
 H          0.0194705533       -1.4385305670        3.9460392838
 H         -1.7794642927       -2.1850985747        2.4277718419
 H         -2.3215002225       -3.1926424063        0.2911851659
 C         -1.3193594417       -2.9552146787       -1.5818212849
 C         -0.7273693650       -4.3281303289       -1.6810992734
 C         -2.1082436083       -4.0675792390       -2.2014027633
 H         -2.2640390279       -4.0543618029       -3.2697240876
 H         -2.9484230680       -4.4544802963       -1.6433895918
 H          0.0658292361       -4.4990287901       -2.3927332420
 H         -0.6282966219       -4.8933749115       -0.7667659621
 H         -0.9433220814       -2.1878589277       -2.2469528160
