  62
        -98.93994528
 C         -2.2432947320       -1.0797157141       -0.4331732525
 C         -3.5390903423       -0.9685963524        0.1323377295
 C         -4.3427586911        0.1797487981       -0.3031528510
 C         -3.8243651283        1.0408801673       -1.1973470613
 C         -4.5041439128        2.2892451993       -1.6792363496
 C         -4.1309675809        3.4949870953       -0.8054151139
 C         -4.2750427621        3.2388284401        0.6949303469
 H         -3.5409464878        2.4887622606        0.9994124006
 H         -4.0157508918        4.1670486864        1.2087951313
 C         -5.6757800254        2.7862702030        1.1308144425
 H         -5.9598186505        3.3431664566        2.0261200599
 H         -6.4013498233        3.0293310003        0.3538746172
 C         -5.7834609359        1.3002334147        1.4777438599
 H         -6.7417208244        1.1364100692        1.9776054090
 H         -4.9945853180        1.0315006650        2.1847719040
 C         -5.7152535287        0.3315460898        0.2903267463
 H         -6.4339448818        0.6336399128       -0.4738188392
 H         -5.9954565363       -0.6610533473        0.6544253202
 H         -4.7596512495        4.3390101628       -1.0949889142
 H         -3.0903723743        3.7596684277       -1.0084137818
 H         -4.1830719732        2.4816059603       -2.7043022768
 H         -5.5816850226        2.1375766965       -1.6676099053
 O         -2.5862171209        0.8937196455       -1.7333656232
 C         -1.7553976637       -0.1546124738       -1.3569012648
 O         -0.6470148949       -0.1443148338       -1.9252960667
 O         -4.0023804926       -1.7941556084        0.9642823697
 C         -1.3655740992       -2.2276400299        0.0410072015
 C         -0.3401025011       -1.6670389623        0.9967709444
 C         -0.7134271278       -1.4464903721        2.3208192850
 C          0.1753140023       -0.8943624431        3.2225611804
 C          1.4520211479       -0.5452130517        2.8193210052
 C          1.8349833111       -0.7595834882        1.5003798988
 C          0.9425561847       -1.3223442012        0.5971567788
 H          1.2521685527       -1.4550726825       -0.4259463339
 N          3.1419030139       -0.4422145854        1.0840018633
 S          3.3475681801        0.3206812553       -0.4124997239
 O          2.4764867142        1.4709892841       -0.5036483943
 O          3.2576918256       -0.6653147950       -1.4578171346
 C          5.0436004030        0.8534795509       -0.2490694512
 C          6.0502791734       -0.0718045839       -0.4506614816
 C          7.3683452124        0.3274073273       -0.2970723405
 C          7.6572567918        1.6379230669        0.0537807020
 C          6.6369747695        2.5560653660        0.2506746579
 C          5.3164121423        2.1624301543        0.0999989691
 H          4.4903893654        2.8425696463        0.2336859707
 H          6.8638649162        3.5751114933        0.5197342040
 H          8.6839564660        1.9465528801        0.1714579386
 H          8.1642112816       -0.3829482023       -0.4523262028
 H          5.7770742587       -1.0755035032       -0.7312284262
 H          3.6490490464        0.0659346110        1.7977294187
 H          2.1484693471       -0.1102316907        3.5204567608
 H         -0.1277912943       -0.7294087669        4.2455313693
 H         -1.7178110728       -1.7041539566        2.6267941043
 H         -2.0370251112       -2.8800334785        0.6171254562
 C         -0.7697124973       -3.0329882957       -1.0923360385
 C         -0.2254948612       -4.3989626731       -0.8029693819
 C         -1.4947912677       -4.2481090918       -1.5849490416
 H         -1.4791631426       -4.4614564396       -2.6432293160
 H         -2.4260096896       -4.5044838450       -1.1010825200
 H          0.6660182612       -4.7165167623       -1.3217050020
 H         -0.2960435436       -4.7571409987        0.2130542274
 H         -0.2563728637       -2.4302430562       -1.8313348669
