  62
        -98.93981083
 C          2.4941534858        1.0039877706       -0.0493572287
 C          3.6894403247        1.0574969280        0.7066041036
 C          4.8874346877        0.5282174080        0.0460135820
 C          4.8007013368        0.0489152045       -1.2084243302
 C          5.9373171809       -0.5060658018       -2.0235239952
 C          6.2410807356       -1.9843860045       -1.7440563399
 C          6.9182774296       -2.2670875317       -0.4024473310
 H          7.2676115601       -3.3011062548       -0.4314305740
 H          7.7967980252       -1.6295503498       -0.2984560392
 C          6.0040399856       -2.0899152543        0.8179334062
 H          4.9604680344       -2.0864503377        0.4939412344
 H          6.1257850926       -2.9415925956        1.4911543252
 C          6.2739092238       -0.8255342671        1.6338676323
 H          5.5487210284       -0.7835430727        2.4507323260
 H          7.2723015085       -0.8794702792        2.0735187682
 C          6.1620966018        0.4787389799        0.8333690658
 H          7.0223052241        0.5901130906        0.1737639110
 H          6.1498837959        1.3134638033        1.5385068618
 H          5.3088582696       -2.5505228610       -1.8082908496
 H          6.8999300584       -2.3378750237       -2.5405312981
 H          5.6450633798       -0.4071340762       -3.0710957523
 H          6.8349853148        0.0893888482       -1.8549318591
 O          3.6351241883        0.0315698796       -1.9080528754
 C          2.4514784597        0.4853203472       -1.3434088711
 O          1.4571156022        0.3825889273       -2.0862526999
 O          3.7509894064        1.5235257808        1.8762631072
 C          1.2064135302        1.5061065798        0.5779168898
 C          0.2077972560        0.3777518243        0.6631845146
 C          0.5969041557       -0.8111848006        1.2757800986
 C         -0.2767999619       -1.8761564793        1.3731962260
 C         -1.5598057154       -1.7818417109        0.8623592677
 C         -1.9631025657       -0.5982563826        0.2613690746
 C         -1.0841967070        0.4762463883        0.1738661797
 H         -1.4125270655        1.3890673330       -0.2979946269
 N         -3.2586929423       -0.4953364747       -0.2740598257
 S         -4.5328226900       -1.1671699014        0.6067245430
 O         -4.4303659602       -0.7853661527        1.9976677254
 O         -4.5759034376       -2.5842668705        0.3459442982
 C         -5.9298556012       -0.3691464347       -0.1589048641
 C         -6.4811325822        0.7499178768        0.4358339962
 C         -7.5517915989        1.3777393536       -0.1811823721
 C         -8.0480895374        0.8801402029       -1.3766562573
 C         -7.4840934374       -0.2442638633       -1.9612684965
 C         -6.4140436479       -0.8774222355       -1.3494393437
 H         -5.9494972034       -1.7577491265       -1.7620941864
 H         -7.8744798426       -0.6290251762       -2.8895921045
 H         -8.8815374299        1.3703229545       -1.8545650553
 H         -7.9942271672        2.2502902406        0.2718664711
 H         -6.0687551198        1.0962022311        1.3699847954
 H         -3.4742822611        0.4442021241       -0.5782160373
 H         -2.2515650527       -2.6060898121        0.9287620245
 H          0.0417507329       -2.7919805849        1.8489363459
 H          1.5998815151       -0.8888850707        1.6738124235
 H          1.4770266460        1.7980481934        1.6036666993
 C          0.6977455081        2.7276873829       -0.1572126070
 C         -0.1585596792        3.7324971776        0.5528203180
 C          1.2575616326        4.0710274510        0.1987640512
 H          1.4369643575        4.7810788685       -0.5944907382
 H          1.9903716720        4.1083234657        0.9914512960
 H         -0.9514032480        4.2165764767        0.0025721039
 H         -0.3910375898        3.5456688560        1.5904252837
 H          0.4996221104        2.5306372021       -1.2048823148
