  62
        -98.93962364
 C         -2.4853746415       -1.0575470949        0.3651596361
 C         -2.4851001406        0.1327479644        1.1400033166
 C         -3.6195830500        1.0406796857        0.9430853608
 C         -4.6019128078        0.7011258405        0.0890812335
 C         -5.8479870304        1.4957934938       -0.1935150836
 C         -5.6620723653        2.5999445072       -1.2428925901
 C         -4.8550257270        3.8113783341       -0.7747535102
 H         -4.9859382067        4.5935570046       -1.5250243857
 H         -5.2711267236        4.1846540516        0.1614037549
 C         -3.3534830646        3.5423014851       -0.6009861479
 H         -3.0829534610        2.6221124886       -1.1245144169
 H         -2.7813387123        4.3504279652       -1.0623170719
 C         -2.8906611547        3.4353276736        0.8523936796
 H         -3.0287038021        4.3963757002        1.3531596731
 H         -1.8213528535        3.2049732583        0.8553483827
 C         -3.6109446815        2.3528293023        1.6672097854
 H         -3.0679139916        2.2115147827        2.6050309060
 H         -4.6288790484        2.6687304013        1.8954700312
 H         -5.1881040346        2.1660959800       -2.1262336197
 H         -6.6573401514        2.9436640582       -1.5336011495
 H         -6.5893199511        0.7865027459       -0.5675163080
 H         -6.2203144437        1.9322888139        0.7336540950
 O         -4.5797283480       -0.4569680936       -0.6178312744
 C         -3.5198527760       -1.3494414567       -0.5246728109
 O         -3.6459216367       -2.3388924499       -1.2719881421
 O         -1.5820087953        0.4157170091        1.9739892954
 C         -1.3045307947       -1.9939376911        0.5569494187
 C         -0.2713159586       -1.8125832174       -0.5301141526
 C         -0.5428070726       -2.1372342785       -1.8554481655
 C          0.4251983184       -1.9650376211       -2.8275828911
 C          1.6752404218       -1.4699880143       -2.5008875054
 C          1.9592206723       -1.1483980561       -1.1784497927
 C          0.9852106464       -1.3214291492       -0.2046880147
 H          1.2092511774       -1.0496362962        0.8160453774
 N          3.2394688252       -0.6922182851       -0.8197332185
 S          3.4101732147        0.4350022484        0.4250575923
 O          3.2442567902       -0.2375734929        1.6884651440
 O          2.5625934636        1.5811041000        0.1810967213
 C          5.1255573777        0.8693852644        0.2045241892
 C          5.4597086608        2.0514988840       -0.4280200305
 C          6.7991438575        2.3564136019       -0.6148685178
 C          7.7756562450        1.4774869629       -0.1713690115
 C          7.4247138882        0.2947402464        0.4628824694
 C          6.0878803984       -0.0152499959        0.6542194377
 H          5.7672165401       -0.9169618749        1.1491703103
 H          8.1867523758       -0.3847916382        0.8088591627
 H          8.8169477953        1.7168902329       -0.3184275409
 H          7.0749578740        3.2765302192       -1.1044099376
 H          4.6662710940        2.7071442863       -0.7492841310
 H          3.7931869405       -0.4264529061       -1.6233449941
 H          2.4279533887       -1.3362831924       -3.2630942557
 H          0.2019258206       -2.2153428589       -3.8538483332
 H         -1.5221946552       -2.5078031405       -2.1155751529
 H         -0.8423150004       -1.6768658714        1.5025302746
 C         -1.6982456840       -3.4528623181        0.6843313775
 C         -0.7426868898       -4.4014758787        1.3411569113
 C         -2.0111635985       -4.0120772815        2.0379787410
 H         -2.8012502634       -4.7429471808        2.1223026089
 H         -1.9439523792       -3.3419749404        2.8830326680
 H         -0.6584928964       -5.4025782603        0.9474714622
 H          0.1856675133       -3.9942833986        1.7138211936
 H         -2.2800572730       -3.8181805573       -0.1514061484
