  62
        -98.93910088
 C         -2.3539535220       -1.2221286767       -0.0768498183
 C         -3.4152654580       -0.8167597208        0.7677194231
 C         -4.2931809810        0.2631221658        0.2784771804
 C         -4.0353586646        0.8079671621       -0.9250303402
 C         -4.7509577359        1.9424414028       -1.6091044520
 C         -4.3904629339        3.3126889839       -1.0139290782
 C         -4.3783757827        3.3665485265        0.5114482114
 H         -3.6600436642        2.6364513326        0.8892258621
 H         -4.0169054562        4.3558028629        0.8045917195
 C         -5.7323560821        3.1453591786        1.1819486844
 H         -5.5930964529        3.3125451064        2.2530079968
 H         -6.4382424482        3.8952486599        0.8182778627
 C         -6.3545795612        1.7594337911        0.9961371329
 H         -6.8138763306        1.6619209051        0.0161245367
 H         -7.1623552725        1.6655374300        1.7277129287
 C         -5.4018229459        0.5953022169        1.2482427411
 H         -5.9919273511       -0.3240023111        1.3441656581
 H         -4.9201630878        0.7301693163        2.2233044064
 H         -5.0929386784        4.0523394825       -1.4019520792
 H         -3.3901920511        3.5803857323       -1.3642266640
 H         -4.4370952453        1.9250843181       -2.6552325212
 H         -5.8241576518        1.7792612100       -1.5820730053
 O         -2.9964371471        0.3900685766       -1.7032766576
 C         -2.1327170680       -0.6163465070       -1.3128670657
 O         -1.2429568829       -0.8724900171       -2.1486150891
 O         -3.6269198215       -1.3351039301        1.8968331701
 C         -1.4208482908       -2.3127308773        0.4246642720
 C         -0.0945227139       -1.6704427414        0.7468378893
 C          0.0867838762       -1.0627081204        1.9862092786
 C          1.2610000817       -0.3954713735        2.2801712225
 C          2.2739639054       -0.3084646610        1.3407058806
 C          2.0954225357       -0.8965553740        0.0963896191
 C          0.9264135744       -1.5896604159       -0.1874995418
 H          0.7956772831       -2.0286640561       -1.1639919740
 N          3.1113433559       -0.7911639440       -0.8720632815
 S          3.6963550242        0.7506494556       -1.1991847087
 O          2.7070363676        1.7694418628       -0.9319817073
 O          4.2083023633        0.6856626876       -2.5510677328
 C          5.0692301720        0.9247313891       -0.0762593919
 C          5.1383916589        2.0208495259        0.7611748341
 C          6.2213211223        2.1428892963        1.6181767358
 C          7.2112064180        1.1722423997        1.6217257632
 C          7.1284575109        0.0786991451        0.7724800594
 C          6.0494101316       -0.0484877099       -0.0875465856
 H          5.9488472031       -0.8800386255       -0.7646919092
 H          7.9001640904       -0.6741142555        0.7781892508
 H          8.0520681182        1.2688763283        2.2902584222
 H          6.2870600335        2.9929115147        2.2782450274
 H          4.3413107025        2.7466405669        0.7276399727
 H          2.8799904738       -1.2606729088       -1.7366097562
 H          3.1869840327        0.2220880218        1.5565042747
 H          1.3887594816        0.0668062531        3.2471787852
 H         -0.7148649743       -1.1070674175        2.7101413979
 H         -1.8670339152       -2.6655786856        1.3639762510
 C         -1.3220504598       -3.4785876496       -0.5360670871
 C         -0.7176496798       -4.7654350246       -0.0618161122
 C         -2.1909515197       -4.6799278340       -0.3206645711
 H         -2.5940939947       -5.1841803506       -1.1861382574
 H         -2.8597332828       -4.6671433441        0.5273577446
 H         -0.1067608108       -5.3323434138       -0.7474951407
 H         -0.3848957009       -4.8085330268        0.9641169946
 H         -1.1414529896       -3.1797783582       -1.5613386120
