  62
        -98.93678440
 C         -2.4180683968       -1.2282494174        0.1190710422
 C         -2.3323206321        0.0482841660       -0.4891004437
 C         -3.6144733650        0.6580531601       -0.8801892068
 C         -4.7630986334       -0.0014580864       -0.6477607891
 C         -6.1353091508        0.5259069034       -0.9497246002
 C         -6.7189224024        1.2771334569        0.2551354190
 C         -5.7655583755        2.3068943581        0.8614289982
 H         -4.9074765647        1.7876651225        1.2945216848
 H         -6.2940760310        2.7949628321        1.6830980396
 C         -5.2659693454        3.3692930551       -0.1275524879
 H         -5.3247241412        4.3488388982        0.3514583400
 H         -5.9168724639        3.3966823986       -1.0021363474
 C         -3.8168304764        3.1829044122       -0.5815342084
 H         -3.1700233381        3.0599378925        0.2910780431
 H         -3.5012622708        4.0946817400       -1.0957883709
 C         -3.5618091878        2.0093668239       -1.5359247235
 H         -2.5447555611        2.1138788856       -1.9259483914
 H         -4.2582673351        2.0586206785       -2.3756383415
 H         -6.9716264895        0.5478114055        1.0281411697
 H         -7.6394359136        1.7718167543       -0.0597639783
 H         -6.7830386167       -0.3193518083       -1.1881722101
 H         -6.0828404830        1.1860788563       -1.8132182271
 O         -4.8062943648       -1.2209532905       -0.0526555631
 C         -3.6449298469       -1.8525462555        0.3602955130
 O         -3.8328566110       -2.9467783505        0.9277331550
 O         -1.2528762791        0.6608677724       -0.6987982094
 C         -1.1806594130       -1.9753077002        0.5859750251
 C         -0.2258191002       -1.0296018586        1.2733215294
 C         -0.6719443441       -0.3316898306        2.3929333785
 C          0.1585232467        0.5558087789        3.0480883041
 C          1.4539847982        0.7591289731        2.6071728792
 C          1.9154364046        0.0552485063        1.5007929932
 C          1.0773427908       -0.8347751112        0.8439410846
 H          1.4491101104       -1.3444820940       -0.0280295259
 N          3.2480268912        0.2107311843        1.0806321011
 S          3.7153398332       -0.0268813357       -0.5198581506
 O          3.0194269630        0.8770254843       -1.4075211960
 O          3.6274978981       -1.4314235902       -0.8311670684
 C          5.4307352042        0.4460755300       -0.3895200723
 C          6.3245154404       -0.4588140757        0.1514167513
 C          7.6546948713       -0.0924327171        0.2796850068
 C          8.0675257597        1.1658937694       -0.1329978634
 C          7.1598433293        2.0628914964       -0.6754650980
 C          5.8274805556        1.7028348003       -0.8049807598
 H          5.0880688619        2.3636184119       -1.2285000642
 H          7.4840491650        3.0392325607       -0.9979826696
 H          9.1037349948        1.4482964051       -0.0339750067
 H          8.3638000522       -0.7879940276        0.6987788154
 H          5.9592932859       -1.4278139298        0.4489418123
 H          3.6756007747        1.0474744310        1.4536098558
 H          2.1021119381        1.4575685545        3.1145339013
 H         -0.2058897927        1.0996935180        3.9069276246
 H         -1.6886620330       -0.4840598939        2.7311183497
 H         -1.5471191288       -2.6895430542        1.3429624525
 C         -0.5148310928       -2.8035385487       -0.5031322814
 C         -1.2947426139       -3.3485091720       -1.6609524072
 C         -0.2826868132       -2.2666520421       -1.8822363237
 H          0.6456429719       -2.5143760460       -2.3774500311
 H         -0.6288428265       -1.2667895544       -2.0931047486
 H         -1.0674862424       -4.3459513324       -2.0058551869
 H         -2.3418870582       -3.0908871435       -1.7272969183
 H          0.2591140285       -3.4518929270       -0.1023732102
