  62
        -98.94106520
 C         -1.6489802796       -1.4930679896       -0.0501988304
 C         -2.7814620294       -0.8769714794        0.5326555696
 C         -3.2591834290        0.3695300908       -0.0877234003
 C         -2.5921521389        0.8803077207       -1.1392091403
 C         -2.8499404186        2.1128620808       -1.9803593303
 C         -3.8013354283        3.2029413510       -1.4951777002
 C         -3.3184475781        3.9676059708       -0.2632556402
 H         -2.4502402279        4.5692991106       -0.5443876102
 H         -4.1123041879        4.6510960810        0.0472116698
 C         -2.9090838483        3.1091381307        0.9316614498
 H         -2.0336166785        2.5064736204        0.6753222698
 H         -2.5965810181        3.7835693105        1.7345941398
 C         -4.0046932586        2.2016470509        1.4895130497
 H         -3.6289516887        1.7733801708        2.4230615597
 H         -4.8888124684        2.7974429012        1.7264325498
 C         -4.4274881189        1.0328222811        0.5824389997
 H         -4.8946859391        0.2701390712        1.2126489696
 H         -5.1650118988        1.3478027013       -0.1520557203
 H         -3.8935382881        3.9223567011       -2.3135525602
 H         -4.7918365284        2.7917974813       -1.3235373202
 H         -1.8639411084        2.5543613705       -2.1583679502
 H         -3.2071919787        1.7464104809       -2.9494872003
 O         -1.5054987991        0.2521763004       -1.6690367903
 C         -0.9781070294       -0.9029461998       -1.1201248604
 O          0.0627865205       -1.2952101400       -1.6820682204
 O         -3.3715051895       -1.3483077292        1.5434923796
 C         -1.0683189899       -2.7164809098        0.6382884995
 C          0.4041208802       -2.4865413002        0.8736693096
 C          1.4052955199       -3.3844456105        0.5290806495
 C          2.7363717600       -3.0675130909        0.7447681195
 C          3.0979603503       -1.8429698310        1.2752000496
 C          2.1014691606       -0.9384329707        1.6237177196
 C          0.7715178705       -1.2793435804        1.4568065396
 H          0.0105451407       -0.5644848902        1.7363827496
 N          2.4000167709        0.3495605692        2.1216063497
 S          2.0231069513        1.6242788893        1.0941596397
 O          2.4131151216        2.8190005092        1.8132959598
 O          0.6433325413        1.5432825097        0.6925600397
 C          3.1235082012        1.3900304791       -0.2908166403
 C          2.8086180210        0.4597266792       -1.2608225003
 C          3.7221277109        0.2284292990       -2.2791159703
 C          4.9225744011        0.9206285887       -2.3089943003
 C          5.2218844214        1.8525147086       -1.3260379302
 C          4.3177742114        2.0862603988       -0.3032396002
 H          4.5042377116        2.8010212887        0.4821766798
 H          6.1548235515        2.3922436483       -1.3515658602
 H          5.6275512611        0.7326784485       -3.1034514303
 H          3.4816644507       -0.4974414409       -3.0392871203
 H          1.8665050308       -0.0662541005       -1.2246439603
 H          3.3587142710        0.4538470889        2.4269858997
 H          4.1370663004       -1.5826649213        1.4109526096
 H          3.5036325298       -3.7754699811        0.4710070495
 H          1.1475685797       -4.3248349804        0.0702834095
 H         -1.5689786099       -2.7355623597        1.6216643995
 C         -1.3840264302       -4.0437507697       -0.0333009305
 C         -2.5696127003       -4.1875134494       -0.9388973605
 C         -1.1836986003       -4.2653991197       -1.5015571505
 H         -0.8194447506       -5.2282813998       -1.8287534506
 H         -0.8166544901       -3.4352781398       -2.0836047105
 H         -3.1553154905       -5.0925122092       -0.8771202206
 H         -3.1540762000       -3.3012957992       -1.1407634005
 H         -1.1783441905       -4.8871940998        0.6187269094
