  62
        -98.93966412
 C         -2.4670203624        0.2398108318       -0.2265414935
 C         -3.5913953157        0.1619351127       -1.0819030778
 C         -4.7967970611       -0.4466618953       -0.5043958729
 C         -4.7593623107       -0.9061829897        0.7600073948
 C         -5.9277528577       -1.5038549387        1.4880894881
 C         -6.7129709750       -0.4305783200        2.2550089408
 C         -7.0589608809        0.7996457170        1.4161073318
 H         -7.6374825012        1.4739133380        2.0512630516
 H         -6.1363789371        1.3207519295        1.1504242125
 C         -7.8531875315        0.4940864002        0.1385222491
 H         -8.3033850428       -0.4966603981        0.2099994500
 H         -8.6686734592        1.2152467836        0.0521204474
 C         -7.0377957522        0.5876687266       -1.1524600196
 H         -6.5099446050        1.5441561786       -1.1839596996
 H         -7.7330119599        0.5698522625       -1.9960386511
 C         -6.0160400678       -0.5337692836       -1.3789256714
 H         -6.5035443112       -1.5043388958       -1.2660984531
 H         -5.6528807183       -0.4495805576       -2.4075524964
 H         -6.1120812751       -0.1057713435        3.1075359865
 H         -7.6300451201       -0.8820005192        2.6378685369
 H         -5.5492850510       -2.2414985094        2.1977143095
 H         -6.5782622719       -2.0032174313        0.7726126478
 O         -3.6530631523       -0.8348058228        1.5435912207
 C         -2.4821010014       -0.2550911130        1.0774180744
 O         -1.5498896952       -0.2425081242        1.9029578846
 O         -3.5848412239        0.5772749631       -2.2726108864
 C         -1.1885242104        0.8662146832       -0.7510536217
 C         -0.0567382249       -0.1308389962       -0.6993892613
 C         -0.2636814738       -1.4086304922       -1.2131383232
 C          0.7455530766       -2.3512487561       -1.1941266572
 C          1.9869652737       -2.0420398259       -0.6663092143
 C          2.2101843521       -0.7674207756       -0.1661437765
 C          1.1939630019        0.1816186092       -0.1918188935
 H          1.3837329681        1.1678316751        0.2023785213
 N          3.4656148577       -0.4451909273        0.3776724639
 S          4.8362944341       -1.0055583764       -0.4344970078
 O          4.6946994229       -0.7844222661       -1.8563093810
 O          5.0846177945       -2.3673549489       -0.0320344063
 C          6.0921762672        0.0636132770        0.2401864326
 C          6.6576553999       -0.2593474629        1.4591393849
 C          7.6172265684        0.5841232424        1.9959820661
 C          7.9923803575        1.7297411777        1.3098428804
 C          7.4162071982        2.0401799595        0.0871710856
 C          6.4550064472        1.2016801983       -0.4550725062
 H          5.9877785060        1.3981908786       -1.4067770609
 H          7.7121325459        2.9298680102       -0.4450527120
 H          8.7409341788        2.3833592123        1.7291316468
 H          8.0693647253        0.3453418475        2.9450760299
 H          6.3414215734       -1.1640684029        1.9515670984
 H          3.5455229520        0.5361621263        0.6061106321
 H          2.7839067877       -2.7679314235       -0.6442586836
 H          0.5663798427       -3.3388740772       -1.5928609450
 H         -1.2325601493       -1.6547907421       -1.6266913636
 H         -1.3890115518        1.0948614460       -1.8087938374
 C         -0.9007306734        2.1608553974       -0.0199491545
 C         -0.1485125729        3.2644347633       -0.7005831234
 C         -1.6185508983        3.4049468393       -0.4465068158
 H         -1.9485775340        4.0966511888        0.3139813350
 H         -2.2945657953        3.3232449099       -1.2851348760
 H          0.5294938395        3.8659359877       -0.1137648793
 H          0.1758904914        3.0952243629       -1.7163270006
 H         -0.7469376113        2.0114605024        1.0430788301
