  62
        -98.94079365
 C         -2.6636563882       -0.0572360296        0.3767375242
 C         -2.7481754874       -1.0712801003       -0.6116320950
 C         -2.2179624890       -2.3873783827       -0.2483722652
 C         -1.6732651619       -2.5676897089        0.9678113521
 C         -1.0439693150       -3.8356409828        1.4775512625
 C          0.4105697265       -4.0161526978        1.0207539873
 C          0.5860237500       -4.4364591444       -0.4396609371
 H          1.6165942676       -4.7797778577       -0.5502783066
 H         -0.0658658454       -5.2840746400       -0.6555903155
 C          0.3328118444       -3.3130930792       -1.4547076367
 H          0.3946661227       -2.3460533369       -0.9500366053
 H          1.1200004962       -3.3274716026       -2.2128935533
 C         -1.0006901833       -3.4088687457       -2.1963524877
 H         -1.0017747417       -4.2950992332       -2.8360638220
 H         -1.0973509937       -2.5282375788       -2.8365670810
 C         -2.2344455235       -3.4676333822       -1.2879963333
 H         -3.1211485357       -3.3131826860       -1.9084338792
 H         -2.3057113061       -4.4459965407       -0.8127466688
 H          0.8602988396       -4.7828104680        1.6565972224
 H          0.9456252426       -3.0782386141        1.1931495693
 H         -1.6378320455       -4.6960338005        1.1665565209
 H         -1.0605417955       -3.7753130593        2.5679742171
 O         -1.6498584179       -1.5876921336        1.9070927246
 C         -2.1122902869       -0.3040103438        1.6348432854
 O         -1.9982458530        0.4770522405        2.5985079736
 O         -3.2528205532       -0.8790795863       -1.7518129221
 C         -3.0798566857        1.3354699855       -0.0665795299
 C         -1.9193131006        1.9446215346       -0.8154356929
 C         -2.0848972495        2.5323550941       -2.0633694593
 C         -0.9899948709        3.0012613662       -2.7690184749
 C          0.2881006545        2.8655990165       -2.2587562874
 C          0.4624657244        2.2866200077       -1.0057650043
 C         -0.6402565663        1.8603576661       -0.2830394979
 H         -0.4885284386        1.4208207420        0.6918121095
 N          1.7402489417        2.1214206020       -0.4502034122
 S          2.0056572137        0.7606066496        0.5222438257
 O          1.2713464072       -0.3729568563        0.0125176064
 O          1.7690347130        1.1302340318        1.8953087073
 C          3.7549459831        0.5189890622        0.2702762723
 C          4.6410395240        1.3601993329        0.9172444063
 C          5.9999142875        1.1942649332        0.7023628337
 C          6.4477509575        0.1956694424       -0.1501759910
 C          5.5468514563       -0.6422108125       -0.7898238437
 C          4.1858947649       -0.4802075105       -0.5811117779
 H          3.4471401664       -1.1100268047       -1.0507390562
 H          5.8972452431       -1.4201660551       -1.4487031675
 H          7.5059451530        0.0676817457       -0.3144442666
 H          6.7032855158        1.8418462783        1.2003705383
 H          4.2459784977        2.1134431277        1.5789302822
 H          2.4873910302        2.2684747830       -1.1147943045
 H          1.1451983599        3.1986007703       -2.8239455847
 H         -1.1311314060        3.4528892161       -3.7391809602
 H         -3.0747529619        2.5943060150       -2.4909758244
 H         -3.8930981399        1.1785826845       -0.7942040156
 C         -3.6220006461        2.2257431567        1.0380477008
 C         -2.8429257725        3.3547989332        1.6357450029
 C         -4.0015545182        3.6450364070        0.7322950290
 H         -4.9074618010        4.0419754080        1.1641822591
 H         -3.7799488544        4.0161557986       -0.2569205058
 H         -2.9472594866        3.5250152337        2.6963518833
 H         -1.8443109637        3.5349571823        1.2684442416
 H         -4.2697183754        1.6803096177        1.7162982173
