  62
        -98.94565883
 C         -1.4435991473        1.2693137147       -0.0866712434
 C         -1.5818404975       -0.0397459652        0.4387331274
 C         -2.7352291177       -0.8070510610       -0.0536407470
 C         -3.5664535885       -0.2730861011       -0.9648500569
 C         -4.7669359148       -0.9436336125       -1.5759262953
 C         -6.0350715711       -0.8606141303       -0.7149728484
 C         -6.0371324727       -1.7468447272        0.5314414681
 H         -5.7831583813       -2.7690184908        0.2488230040
 H         -7.0599378080       -1.7588877991        0.9133973076
 C         -5.0987047231       -1.2714995209        1.6494005095
 H         -5.6238517836       -1.3105339604        2.6063587312
 H         -4.8250959571       -0.2283675599        1.4755937468
 C         -3.8213724057       -2.0981943186        1.7994540285
 H         -4.0758509850       -3.1158148408        2.1042388302
 H         -3.2137285378       -1.6510943903        2.5900015776
 C         -2.9664217281       -2.1691510618        0.5277847440
 H         -3.4380672390       -2.8203641078       -0.2083098704
 H         -1.9906711793       -2.5904023997        0.7843889580
 H         -6.8760192027       -1.1570196863       -1.3462035273
 H         -6.1899861308        0.1804228833       -0.4222609581
 H         -4.9586940177       -0.4330435029       -2.5223301944
 H         -4.5346299807       -1.9881185080       -1.7871803686
 O         -3.3907218511        0.9799917174       -1.4627162478
 C         -2.3418041430        1.7739133944       -1.0320481587
 O         -2.3155024939        2.9072670454       -1.5550968444
 H          0.7339112348       -0.1065034739       -0.6885370620
 C          1.3150542751        0.7590677882       -0.9607714154
 C          0.9073910233        2.0248555087       -0.5689727308
 C          1.6662989629        3.1219629502       -0.9627699044
 C          2.8034898306        2.9527437835       -1.7305578305
 C          3.2125681578        1.6873802423       -2.1110432438
 C          2.4594160344        0.5835490046       -1.7273029387
 N          2.8376827698       -0.7071994253       -2.1207823635
 S          2.6280307268       -2.0114511427       -1.0925029220
 O          3.5232976950       -3.0179910922       -1.6260308140
 O          1.2378888323       -2.3813768899       -1.0287857126
 C          3.2448165229       -1.4456763714        0.4818324303
 C          4.6136516149       -1.2889266688        0.5958246725
 C          5.1392711946       -0.8047652751        1.7814214236
 C          4.2894496941       -0.4823708148        2.8292298238
 C          2.9204730622       -0.6505663811        2.6996282965
 C          2.3856550296       -1.1360602121        1.5150350330
 H          1.3216898490       -1.2641510684        1.3883249121
 H          2.2562453551       -0.4036465383        3.5129238682
 H          4.6959144579       -0.1005066521        3.7525118009
 H          6.2048427541       -0.6779523464        1.8851372008
 H          5.2399474300       -1.5648683142       -0.2370913816
 H          3.7202525585       -0.7590527750       -2.6078060170
 H          4.0985966622        1.5522544612       -2.7121573511
 H          3.3791254015        3.8132005396       -2.0354267028
 H          1.3489633300        4.1137193862       -0.6782893512
 C         -0.3209236870        2.2198245646        0.2913471871
 H         -0.7061928693        3.2295406918        0.0897210228
 C          0.0753599756        2.1433666805        1.7544362765
 C          0.6281266643        3.3559057375        2.4380038730
 C         -0.7453160973        2.8628413167        2.7802361293
 H         -0.9072682109        2.3868113075        3.7354744830
 H         -1.5940219880        3.4326238874        2.4294876367
 H          0.7057089894        4.2678522936        1.8662890181
 H          1.4180694866        3.2216645307        3.1604797160
 H          0.4820252549        1.1804479968        2.0315927211
 O         -0.8026153911       -0.5656103729        1.2756964554
