  62
        -98.93637286
 C         -1.6542816698       -1.4308146906        0.3210253601
 C         -1.9001562900       -0.1915083205        0.9663838099
 C         -3.1327237699        0.5278530394        0.5981205395
 C         -3.9444912596        0.0004172894       -0.3371242308
 C         -5.2934339894        0.4466226493       -0.8620439913
 C         -5.8337565595        1.8391226293       -0.5499033216
 C         -5.0757588793        2.9773956693       -1.2304422914
 H         -5.2573363489        2.9226138392       -2.3068209115
 H         -5.4844510795        3.9248711293       -0.8724807716
 C         -3.5654514194        2.9722595093       -1.0122064709
 H         -3.1339986492        2.0726720393       -1.4564401707
 H         -3.1471750292        3.8291410393       -1.5475764508
 C         -3.1222943099        3.0713457294        0.4458548293
 H         -3.6063164201        3.9292125495        0.9167003690
 H         -2.0460550499        3.2540939994        0.4468556796
 C         -3.3838631902        1.8260616095        1.3116827693
 H         -2.6864282205        1.8469216496        2.1542110095
 H         -4.3908595703        1.8395275395        1.7240134889
 H         -6.8645510394        1.8630398693       -0.9137013320
 H         -5.8748851099        1.9961296294        0.5239013484
 H         -5.2517421590        0.3137144592       -1.9479507513
 H         -6.0100140895       -0.2945713307       -0.4906715515
 O         -3.6396730093       -1.1685726207       -0.9691458106
 C         -2.5097448094       -1.9124966506       -0.6683247601
 O         -2.4078429692       -2.9497634607       -1.3521447600
 O         -1.1302146104        0.2832476096        1.8427262602
 C         -0.4284136099       -2.2034403905        0.7764982206
 C          0.7576286804       -1.9768170406       -0.1296621090
 C          0.7107976109       -2.2984863507       -1.4819206390
 C          1.8096064311       -2.0823990307       -2.2943455086
 C          2.9777866309       -1.5495659507       -1.7769943782
 C          3.0341171905       -1.2251921105       -0.4289502082
 C          1.9285413802       -1.4377886005        0.3846408014
 H          1.9748293898       -1.1670680204        1.4310042214
 N          4.2228370503       -0.6646304605        0.0922223621
 S          4.5496505204        0.9074151595       -0.3909859079
 O          4.6372262509        0.9423162494       -1.8273291679
 O          5.7306263102        1.3069022696        0.3383753025
 C          3.1365735702        1.8350951695        0.1747560015
 C          1.9664804805        1.7767550694       -0.5560261689
 C          0.8387164803        2.4119141294       -0.0624102693
 C          0.8998317799        3.0886698095        1.1453133807
 C          2.0829614896        3.1399956996        1.8656788011
 C          3.2125554998        2.5010183296        1.3817734715
 H          4.1522644796        2.5114831497        1.9106175219
 H          2.1232846193        3.6675604797        2.8051261710
 H          0.0171771297        3.5724440096        1.5331231803
 H         -0.0858696195        2.3614517794       -0.6159265096
 H          1.9535197108        1.2421553094       -1.4924840388
 H          4.2709045699       -0.7074634504        1.1013050821
 H          3.8370075012       -1.3611156007       -2.3996584580
 H          1.7569745515       -2.3347752408       -3.3427892686
 H         -0.1982608390       -2.7122674107       -1.8909411293
 H         -0.1781122603       -1.7830661904        1.7600553207
 C         -0.6840214100       -3.6893600605        0.9433097506
 C          0.1945637397       -4.4804334604        1.8632808910
 C         -1.2282883504       -4.1999301604        2.2419727405
 H         -1.9412432604       -5.0102457204        2.2175302703
 H         -1.4153340507       -3.4787331603        3.0243607904
 H          0.4631002098       -5.4861802104        1.5790812012
 H          0.9728517995       -3.9515167404        2.3923743112
 H         -1.0277120997       -4.1707787006        0.0373818006
