  62
        -98.93835926
 C          2.3195444307        1.1714454751        0.2052681094
 C          2.3205947658       -0.0677990225       -0.4758899392
 C          3.2782369801       -1.0807733805        0.0084835943
 C          4.0638195109       -0.7934306370        1.0603840964
 C          5.1292400484       -1.6571425599        1.6769330635
 C          6.5056718814       -1.3459964394        1.0647369304
 C          6.8404096030       -2.1328530940       -0.2017137513
 H          7.7734548248       -1.7272318079       -0.5993643953
 H          7.0228563329       -3.1766790810        0.0619768077
 C          5.7762481291       -2.0857142406       -1.3010900284
 H          5.3956729031       -1.0676799254       -1.4016353610
 H          6.2580703771       -2.3456982435       -2.2455996797
 C          4.6109741694       -3.0557628547       -1.0548598485
 H          4.8818043574       -3.7444908556       -0.2549166014
 H          4.4522624679       -3.6656816191       -1.9467609353
 C          3.2650407492       -2.3915503478       -0.7302400475
 H          2.7307539894       -2.1790356063       -1.6619318812
 H          2.6405646608       -3.0983019456       -0.1724369952
 H          7.2757497282       -1.5596124229        1.8086265109
 H          6.5432262095       -0.2743361524        0.8534738937
 H          4.8803034755       -2.7091076140        1.5741496362
 H          5.1559979377       -1.4044481991        2.7389439435
 O          4.0181081739        0.4078954405        1.6992914711
 C          3.1540131657        1.4076689775        1.3007436231
 O          3.2200986828        2.4477062061        1.9854309336
 O          1.5726706516       -0.3305472959       -1.4558508094
 C          1.3674321708        2.2951137556       -0.1772537911
 C         -0.0281241330        1.8676856944        0.2070466307
 C         -0.4621573137        2.0587029039        1.5159556958
 C         -1.7053426822        1.6091110491        1.9192522201
 C         -2.5367865609        0.9489551126        1.0306279681
 C         -2.1050704886        0.7380803186       -0.2712563683
 C         -0.8666795072        1.2140506823       -0.6818947759
 H         -0.5383074997        1.0306534170       -1.6924838477
 N         -2.9337980761        0.0514272901       -1.1762702917
 S         -3.6100336022       -1.4003798663       -0.6709432645
 O         -2.7982244731       -2.0551248353        0.3290156535
 O         -3.8626241695       -2.1450386751       -1.8855846540
 C         -5.1713305060       -0.9104949076        0.0343973943
 C         -6.0159554371       -0.1293109007       -0.7299814892
 C         -7.2389845931        0.2498231951       -0.2003506427
 C         -7.5966133188       -0.1584023540        1.0760856751
 C         -6.7394093036       -0.9456112068        1.8294275191
 C         -5.5139048092       -1.3274652072        1.3056607764
 H         -4.8123640911       -1.9335238625        1.8568533654
 H         -7.0188267688       -1.2628105914        2.8213391875
 H         -8.5490128900        0.1382306439        1.4862603570
 H         -7.9082702821        0.8619678858       -0.7831384121
 H         -5.7016697488        0.1642439360       -1.7175143790
 H         -2.5171841094       -0.0566774315       -2.0904647125
 H         -3.5014984296        0.5828111334        1.3419287934
 H         -2.0299113932        1.7683879811        2.9363646126
 H          0.1982678469        2.5501296201        2.2170802110
 H          1.6462166706        3.1494361342        0.4534832786
 C          1.5090009132        2.6982621780       -1.6300198289
 C          0.9082067504        3.9914732230       -2.0900624620
 C          2.3964018058        3.8517536387       -1.9848209266
 H          2.9759395114        3.7941054024       -2.8940628382
 H          2.9025468515        4.3598972410       -1.1769356445
 H          0.4639431636        4.0337543363       -3.0726964333
 H          0.4026352899        4.5946702830       -1.3513087766
 H          1.4953902632        1.8599787847       -2.3148731313
