  62
        -98.94103630
 C          1.5649829953       -0.1357083068        0.8170229306
 C          2.8682621214       -0.2738115011        1.3604815030
 C          3.9477879868        0.4089803882        0.6396053651
 C          3.6661092725        1.1060079922       -0.4757015336
 C          4.6523154138        1.8759473436       -1.3116192906
 C          5.4074082963        1.0170083014       -2.3351988726
 C          6.4643993648        0.0817198845       -1.7465562832
 H          7.0608155128       -0.2932660130       -2.5807200816
 H          7.1325219602        0.6509861095       -1.0994844832
 C          5.8914595671       -1.1143647271       -0.9733787153
 H          4.8388096302       -1.2465097661       -1.2344132521
 H          6.4120591573       -2.0262648217       -1.2746930644
 C          6.0141727204       -1.0043875963        0.5464985093
 H          7.0689558849       -1.0059248574        0.8303981938
 H          5.5444807293       -1.8845289839        0.9932387053
 C          5.3489007833        0.2417981751        1.1452123931
 H          5.9423820291        1.1284753465        0.9228999873
 H          5.2993809786        0.1157897573        2.2296574764
 H          5.9035744002        1.6987946820       -3.0297987142
 H          4.6809458865        0.4328018202       -2.9047553755
 H          4.0783410841        2.6308251058       -1.8531489559
 H          5.3670001146        2.3821729492       -0.6620356240
 O          2.4072669692        1.2037610484       -0.9747200621
 C          1.3279659605        0.5705921010       -0.3642737352
 O          0.2534438949        0.7263840790       -0.9697857404
 O          3.1180673724       -0.9393931885        2.4008937599
 C          0.4322351376       -0.8527449956        1.5304926576
 C         -0.3753473283       -1.6495721993        0.5394900577
 C          0.2057744222       -2.7602148566       -0.0668494855
 C         -0.4909796042       -3.4948376442       -1.0064542724
 C         -1.7800804783       -3.1373012612       -1.3605789436
 C         -2.3661902284       -2.0261001004       -0.7655718238
 C         -1.6660934258       -1.2951297214        0.1841582195
 H         -2.1302550321       -0.4330881218        0.6312758490
 N         -3.6465387238       -1.6147676380       -1.1429679309
 S         -4.6109553352       -0.6354627139       -0.2122104500
 O         -4.5976112440       -1.0339031167        1.1772863071
 O         -5.9041916808       -0.6919036085       -0.8618519128
 C         -3.9481400416        1.0095617733       -0.3789754099
 C         -3.2424635996        1.3639391696       -1.5101919624
 C         -2.7701823608        2.6614449845       -1.6232037178
 C         -3.0175558352        3.5800808698       -0.6156333916
 C         -3.7345380167        3.2108386366        0.5118320958
 C         -4.2038999894        1.9131418376        0.6338095016
 H         -4.7530793549        1.5792526671        1.5002095376
 H         -3.9239987194        3.9267177679        1.2959291187
 H         -2.6456001772        4.5885769034       -0.7069565918
 H         -2.2017093978        2.9459706188       -2.4937527143
 H         -3.0493574725        0.6292901191       -2.2735833325
 H         -4.1505593513       -2.2062161467       -1.7839962463
 H         -2.3244241750       -3.7056340018       -2.0991888360
 H         -0.0287857509       -4.3541246482       -1.4689477705
 H          1.2165527791       -3.0344887279        0.2037031121
 H          0.9413197389       -1.5625617277        2.2039576392
 C         -0.4231330753        0.0419782424        2.4142190037
 C          0.1830680691        1.2013177290        3.1453206013
 C         -0.7953557868        1.4434161110        2.0371754797
 H         -1.7862391882        1.7898248876        2.2929421411
 H         -0.4334345288        1.8270531649        1.0965573589
 H         -0.1293836736        1.3897805633        4.1613304621
 H          1.2261594424        1.4139428373        2.9611376551
 H         -1.1765088303       -0.5278519997        2.9513740342
