  62
        -98.93820437
 C         -2.6678608636       -1.1878496706        0.2189998233
 C         -3.0974959571       -0.2601857242        1.2030511887
 C         -4.3143803271        0.4980122423        0.8979140603
 C         -4.9643816278        0.2725222171       -0.2580262073
 C         -6.2373661376        0.9390294485       -0.7044072685
 C         -6.0267341506        2.3036173420       -1.3744879754
 C         -5.6307642189        3.4382367881       -0.4288413411
 H         -5.7305535533        4.3706329644       -0.9881037438
 H         -6.3360669545        3.4801164267        0.4017793992
 C         -4.1981148378        3.3395346107        0.1137873222
 H         -3.7113682545        4.3142971476        0.0363270973
 H         -3.6215561799        2.6449679635       -0.5016271947
 C         -4.1016571235        2.9008480396        1.5750864351
 H         -4.5598374244        3.6572954214        2.2162047640
 H         -3.0440448896        2.8283288688        1.8414827388
 C         -4.7583342262        1.5465257109        1.8725739547
 H         -4.4474597793        1.2257184858        2.8698988098
 H         -5.8438441817        1.6433093231        1.8587839622
 H         -6.9664493475        2.5758011692       -1.8606003557
 H         -5.2683235717        2.1968016238       -2.1534209194
 H         -6.9101450977        1.0500346563        0.1465415856
 H         -6.7015684754        0.2672122838       -1.4296481086
 O         -4.5312081477       -0.6341862261       -1.1708522958
 C         -3.3656548596       -1.3688644359       -0.9763155999
 O         -3.0925485713       -2.1251117649       -1.9252364326
 O         -2.4935751401       -0.0860113373        2.2960776967
 C         -1.4107239458       -1.9763071296        0.5388876381
 C         -0.1819797885       -1.2834137327        0.0074780376
 C         -0.0842546007       -0.9002231384       -1.3266266229
 C          1.0594623950       -0.2782247582       -1.7935587253
 C          2.1221163624       -0.0194618130       -0.9450105313
 C          2.0336306029       -0.3930420456        0.3888647528
 C          0.8855902958       -1.0228906329        0.8539246961
 H          0.8161853085       -1.3030635671        1.8966371667
 N          3.0995784788       -0.1161722678        1.2590722525
 S          4.6570634300       -0.5218089775        0.7839662326
 O          4.6553606523       -1.6553303650       -0.1109478844
 O          5.3967198970       -0.6766049376        2.0172164060
 C          5.2411128336        0.9299393064       -0.0644121769
 C          5.7789072199        0.8160175328       -1.3313326292
 C          6.2443210500        1.9568640890       -1.9667192332
 C          6.1651405572        3.1841512573       -1.3267153657
 C          5.6235992315        3.2811079562       -0.0534056263
 C          5.1576722925        2.1445315364        0.5877603859
 H          4.7324762309        2.1779593918        1.5770053115
 H          5.5630766682        4.2374411396        0.4406948261
 H          6.5274080162        4.0705568391       -1.8231185502
 H          6.6655297127        1.8835769560       -2.9565146119
 H          5.8147778312       -0.1580822092       -1.7927418759
 H          2.9289477780       -0.3834635874        2.2176501454
 H          3.0138836315        0.4655912525       -1.3070026953
 H          1.1242080952        0.0103643721       -2.8318198599
 H         -0.9111858219       -1.1017304327       -1.9909755890
 H         -1.3470364503       -1.9548842981        1.6388802271
 C         -1.4938252320       -3.4392449014        0.1257518573
 C         -0.6978990869       -4.0415761427       -0.9885881999
 C         -0.3577616461       -4.3704945977        0.4321695980
 H         -0.5816580880       -5.3575408582        0.8074187217
 H          0.5450572650       -3.9379326312        0.8382482726
 H         -1.1810535053       -4.7901937735       -1.5974714559
 H         -0.0212073963       -3.4072445750       -1.5386920927
 H         -2.4944701446       -3.8369541288        0.2630374769
