  62
        -98.94443757
 C          1.9421451272        1.0881578654       -0.2023844658
 C          2.4264737579       -0.0799021747       -0.8384374248
 C          3.8829805058       -0.2763010778       -0.7874345701
 C          4.6534918247        0.6464488862       -0.1830367877
 C          6.1415003931        0.5452902142       -0.0158850998
 C          6.5063074258       -0.1378735246        1.3095783133
 C          5.7539882993       -1.4452707612        1.5580618133
 H          6.1135423545       -1.8523234485        2.5055888862
 H          4.6909488420       -1.2275186411        1.6842334323
 C          5.9255625339       -2.4964366255        0.4526471538
 H          6.7975481214       -2.2551653473       -0.1563591565
 H          6.1135556109       -3.4663952439        0.9178278632
 C          4.7059430192       -2.6672987536       -0.4551670734
 H          3.8110876399       -2.8159984059        0.1548315469
 H          4.8493742876       -3.5730345801       -1.0505703184
 C          4.4348904557       -1.5162991854       -1.4322767377
 H          5.3425674849       -1.2888906232       -1.9951564843
 H          3.6683717247       -1.8527571157       -2.1367866239
 H          7.5811802968       -0.3275561609        1.3155896591
 H          6.2777298710        0.5493585114        2.1273992176
 H          6.5583052967       -0.0132048422       -0.8516732081
 H          6.5574994521        1.5541602932       -0.0210765062
 O          4.1521212182        1.7676775362        0.3954164158
 C          2.7885719520        2.0104047438        0.4126923610
 O          2.4588511895        3.0616072557        0.9981748196
 H         -1.6807966038       -0.1038611050       -1.1758284072
 C         -1.3482981287       -0.4168174422       -0.2010138786
 C         -0.2897013240        0.2187151944        0.4270855894
 C          0.1121454033       -0.2363450326        1.6813058758
 C         -0.5136919549       -1.3129406139        2.2771747042
 C         -1.5643866530       -1.9520922749        1.6415425809
 C         -1.9795571459       -1.5018632648        0.3949837569
 N         -3.0313076136       -2.1437489706       -0.2775629491
 S         -4.2218398690       -1.2563509838       -1.0430037850
 O         -5.2974284213       -2.2007753350       -1.2500012810
 O         -3.6988500537       -0.6180785972       -2.2230608805
 C         -4.7072682603       -0.0374426884        0.1645405328
 C         -4.2116125456        1.2474361894        0.0820788781
 C         -4.5484005026        2.1587239967        1.0707884976
 C         -5.3687643528        1.7712553502        2.1186995095
 C         -5.8632571156        0.4772027338        2.1842785388
 C         -5.5274172897       -0.4389331954        1.2012815197
 H         -5.9000707344       -1.4504020092        1.2094044971
 H         -6.5055672326        0.1809402037        2.9978653271
 H         -5.6262209353        2.4835028101        2.8866959114
 H         -4.1670957452        3.1662246828        1.0197195331
 H         -3.5802855067        1.5127200671       -0.7495964748
 H         -3.4302199299       -2.9255750581        0.2209476241
 H         -2.0488598221       -2.8005284616        2.1004086145
 H         -0.1833629025       -1.6590467462        3.2450526551
 H          0.9354851832        0.2620023902        2.1756015346
 C          0.4516089112        1.3800240003       -0.1883812870
 H          0.3209468760        2.2565269876        0.4629536026
 C         -0.0186469442        1.7371832320       -1.5825878950
 C         -1.1634556008        2.6842786127       -1.7734654831
 C          0.2326970534        3.1203378545       -2.1002962240
 H          0.5098671880        3.2402442216       -3.1368915772
 H          0.7207973579        3.8168713309       -1.4339067763
 H         -1.8515632915        2.5038417848       -2.5864792303
 H         -1.6190001154        3.0985666420       -0.8865178482
 H          0.0902624547        0.9186298556       -2.2853466986
 O          1.6856462825       -0.9163586719       -1.4181070093
