  62
        -98.94467988
 C         -2.6172248598       -1.2655094302        0.1143277007
 C         -2.6419509700       -0.3032364807       -0.9243339098
 C         -3.5250113501        0.8506388093       -0.7067827703
 C         -4.2646859501        0.9353356197        0.4129814397
 C         -5.2274857103        2.0372512398        0.7622806692
 C         -4.5660259504        3.2614933302        1.4096627185
 C         -3.7363507505        4.1292551298        0.4624687081
 H         -4.3350906306        4.3876494493       -0.4114920920
 H         -3.5126363406        5.0580005501        0.9909221577
 C         -2.4151074905        3.4902151598        0.0115608184
 H         -2.1584356603        2.6643104401        0.6798608088
 H         -1.6066111506        4.2207708999        0.0923005080
 C         -2.4164598204        2.9776501191       -1.4287754414
 H         -1.4441359804        2.5160986391       -1.6241371311
 H         -2.5317199805        3.8186845787       -2.1164663818
 C         -3.5098213503        1.9443460588       -1.7319253808
 H         -4.4826772304        2.4324769386       -1.7834258310
 H         -3.2928733602        1.4904015483       -2.7019466606
 H         -5.3633105505        3.8793648403        1.8290000383
 H         -3.9370866703        2.9229180607        2.2362637287
 H         -5.7715747103        2.3457229193       -0.1307110610
 H         -5.9383257402        1.6134325900        1.4748276294
 O         -4.2315146800       -0.0199516098        1.3784883501
 C         -3.3961697398       -1.1171357097        1.2672352407
 O         -3.4440168597       -1.8923814593        2.2429916410
 O         -1.9784904200       -0.3810188711       -1.9935324497
 C         -1.7335922697       -2.5050007501        0.0791451513
 C         -0.3082947197       -2.1197176098        0.3965815911
 C          0.2411525403       -2.4056237291        1.6414809212
 C          1.5302918003       -2.0091629088        1.9509340610
 C          2.2946234602       -1.3145251791        1.0301469906
 C          1.7491876701       -1.0120402698       -0.2102293495
 C          0.4634308402       -1.4261757501       -0.5246976193
 H          0.0390626901       -1.1667319406       -1.4828775594
 N          2.5097314200       -0.2849905201       -1.1467799999
 S          3.1177161598        1.1963852102       -0.6332149106
 O          2.3070498098        1.7669458106        0.4185220991
 O          3.2678035097        1.9887039896       -1.8344194910
 C          4.7346131199        0.7884661507       -0.0070463804
 C          5.6226399000        0.1613683504       -0.8592039501
 C          6.8863264800       -0.1602315492       -0.3903755100
 C          7.2398014100        0.1511839715        0.9142805398
 C          6.3381605899        0.7838723218        1.7563213795
 C          5.0718801099        1.1073837914        1.2936330594
 H          4.3355924898        1.5944707516        1.9131639992
 H          6.6145514499        1.0255815623        2.7701089294
 H          8.2239001200       -0.1003806382        1.2770812799
 H          7.5903978801       -0.6520005294       -1.0421214598
 H          5.3093768100       -0.0584889301       -1.8660924400
 H          2.0334228400       -0.1718131906       -2.0312016199
 H          3.2964847702       -0.9954345289        1.2675851605
 H          1.9433759403       -2.2400433582        2.9210610111
 H         -0.3601934596       -2.9253231188        2.3737096615
 H         -2.0955477796       -3.1474412398        0.8925822616
 C         -1.8452746096       -3.2731828207       -1.2227561383
 C         -1.4111423094       -4.7064981007       -1.2571101076
 C         -2.8671452295       -4.3617729109       -1.3418840878
 H         -3.3758173295       -4.4887591815       -2.2857416077
 H         -3.4900813394       -4.5585388106       -0.4812923177
 H         -0.9171877394       -5.0738697811       -2.1434039675
 H         -1.0464919593       -5.1391517502       -0.3377728374
 H         -1.6644133397       -2.6689212112       -2.1015154886
