  62
        -98.94515501
 C          2.2471188145        0.7760613552       -0.0161637704
 C          3.2269500072        0.6389488565        0.9999841374
 C          4.0655045318       -0.5641903500        0.9342783809
 C          3.8380971086       -1.4700099042       -0.0342706769
 C          4.6404634144       -2.7206543926       -0.2443605080
 C          5.8083048156       -2.4773553801       -1.2106643599
 C          6.6463954953       -1.2453889868       -0.8687945341
 H          7.4580938749       -1.1923294730       -1.5975300382
 H          6.0345936828       -0.3504344865       -1.0032704223
 C          7.2320543461       -1.2499053898        0.5501685298
 H          7.2145993480       -2.2624467580        0.9548291219
 H          8.2777289231       -0.9395687552        0.4981148748
 C          6.5343130562       -0.3018332106        1.5272047561
 H          6.4656940050        0.6948221507        1.0841976754
 H          7.1551981444       -0.2198666019        2.4232046219
 C          5.1316854433       -0.7252600869        1.9813887002
 H          5.1582100076       -1.7532941753        2.3483931740
 H          4.8387249251       -0.0724060212        2.8087015526
 H          6.4445442006       -3.3642715995       -1.2124359470
 H          5.4030588847       -2.3478874993       -2.2169544754
 H          5.0159148517       -3.0700435271        0.7155252144
 H          3.9830012567       -3.4828804213       -0.6662007884
 O          2.8676612265       -1.3226295317       -0.9710841382
 C          2.0531755443       -0.1993287665       -0.9943522241
 O          1.2244745910       -0.1984251087       -1.9258496118
 H         -0.7775437738        1.3484457950       -1.5759501923
 C         -0.9973877536        1.2457816346       -0.5251466644
 C         -0.0310977153        1.5644214100        0.4161322520
 C         -0.3302520619        1.3880576536        1.7644406753
 C         -1.5658583594        0.9087367841        2.1562548135
 C         -2.5249617666        0.5828235762        1.2126523684
 C         -2.2295151016        0.7383862460       -0.1343406068
 N         -3.1908366022        0.3912831818       -1.1007881497
 S         -3.9256556999       -1.1129913110       -0.9625819512
 O         -3.0779561476       -2.0685370610       -0.2872118307
 O         -4.3445314195       -1.4563045749       -2.3044280319
 C         -5.3741131642       -0.7796708955        0.0207064698
 C         -5.6227038044       -1.5257343967        1.1560383995
 C         -6.7614329624       -1.2565326142        1.8996023976
 C         -7.6273734533       -0.2518638578        1.4960819123
 C         -7.3647434069        0.4869144783        0.3519157462
 C         -6.2289336460        0.2220631204       -0.3963089342
 H         -5.9898872238        0.7701736987       -1.2921469221
 H         -8.0403813804        1.2675015946        0.0415249268
 H         -8.5121058779       -0.0436522073        2.0767515009
 H         -6.9668833968       -1.8306149786        2.7888450905
 H         -4.9174828388       -2.2929997476        1.4340118977
 H         -2.8691791185        0.5350429485       -2.0478871941
 H         -3.4856643332        0.1946782302        1.5092733462
 H         -1.7847975390        0.7817727957        3.2055741011
 H          0.4274857259        1.6176099224        2.5005226106
 C          1.3552531800        2.0073806906        0.0198062318
 H          1.7577415204        2.6318671745        0.8285349676
 C          1.4045336886        2.7940588105       -1.2728406934
 C          0.8716122951        4.1946098105       -1.2974008064
 C          2.3475302134        3.9525306037       -1.3881065208
 H          2.8422763924        4.1205807271       -2.3330486072
 H          2.9582367142        4.1869098089       -0.5285821547
 H          0.3505614876        4.5330226262       -2.1798641786
 H          0.4788291324        4.5920949699       -0.3739641732
 H          1.2668263132        2.1824944831       -2.1561434400
 O          3.3922992315        1.4862451887        1.9172573862
