  62
        -98.94283552
 C         -2.4516174171       -0.8708170831        0.5243511423
 C         -2.4996453641        0.2208327665       -0.3761172832
 C         -3.5793113173        1.1892530474       -0.1429519912
 C         -4.4166680828        1.0246798346        0.8967711693
 C         -5.5487013696        1.9400865840        1.2769545087
 C         -6.8495575296        1.6780720623        0.5055829127
 C         -6.8370311546        2.1163627213       -0.9594154406
 H         -7.8687397734        2.0760013589       -1.3144849917
 H         -6.5111721834        3.1549569708       -1.0240162214
 C         -5.9662990793        1.2436305611       -1.8740842814
 H         -5.7518246607        0.2949931926       -1.3764593586
 H         -6.5189100743        1.0079672692       -2.7864467551
 C         -4.6468127796        1.8890571677       -2.2977229564
 H         -4.8499489288        2.7692229012       -2.9118112925
 H         -4.0956401365        1.1710741895       -2.9104034567
 C         -3.7439430771        2.3059666448       -1.1292565335
 H         -2.7547865804        2.5449154853       -1.5274015323
 H         -4.1477039157        3.1915839356       -0.6393205476
 H         -7.0824015384        0.6123863663        0.5652008433
 H         -7.6468488586        2.2213119302        1.0180455037
 H         -5.7392174047        1.7734248909        2.3393162993
 H         -5.2439317415        2.9775739557        1.1371633734
 O         -4.3117707689       -0.0188234609        1.7624822445
 C         -3.3435337658       -0.9933752514        1.5913465930
 O         -3.3749250147       -1.9030757976        2.4448133007
 H          0.6611474079       -1.3674746031       -1.3757421105
 C          0.8902076434       -1.1027844627       -0.3556395345
 C         -0.0378077144       -1.3390766835        0.6448532190
 C          0.2828713735       -0.9757153932        1.9506391345
 C          1.4991042963       -0.3891889723        2.2419110071
 C          2.4193235349       -0.1431025247        1.2369464688
 C          2.1090769003       -0.4995945478       -0.0675813852
 N          3.0253777889       -0.2306808194       -1.0960142663
 S          4.6379509642       -0.6292924993       -0.8860824196
 O          5.1696208274       -0.7687809520       -2.2243410885
 O          4.7933770620       -1.7698097232       -0.0130275064
 C          5.3477299464        0.8183729800       -0.1302240505
 C          5.1380272082        2.0415042856       -0.7364090971
 C          5.6983533526        3.1743052876       -0.1681939652
 C          6.4574945787        3.0654749323        0.9875526956
 C          6.6610444830        1.8299227759        1.5824981117
 C          6.1022764561        0.6929233695        1.0196802514
 H          6.2286042585       -0.2874543235        1.4508213757
 H          7.2512024169        1.7474672695        2.4810718246
 H          6.8924464318        3.9491462510        1.4271946903
 H          5.5412471688        4.1370791205       -0.6273378315
 H          4.5431098169        2.0847313203       -1.6335216245
 H          2.6958227852       -0.4796896530       -2.0168563251
 H          3.3685585979        0.3179116715        1.4561815511
 H          1.7339736206       -0.1165949999        3.2596815960
 H         -0.4414269021       -1.1590965637        2.7328853763
 C         -1.3918644826       -1.9508339373        0.3786849189
 H         -1.5934093836       -2.6804297461        1.1750733848
 C         -1.5035529542       -2.6494663695       -0.9598456578
 C         -0.8416271523       -3.9791643973       -1.1569751124
 C         -2.3350850324       -3.8904138667       -1.0684933228
 H         -2.9151397757       -4.0451494553       -1.9659896875
 H         -2.8171612539       -4.2486805531       -0.1705220838
 H         -0.3957665203       -4.1990216605       -2.1153627843
 H         -0.3065889068       -4.3985196448       -0.3181411749
 H         -1.5283627458       -1.9635122606       -1.7979671527
 O         -1.6929764508        0.3852518098       -1.3279279347
