  62
        -98.94200352
 C         -0.7151308927       -1.3037305966        0.5385560324
 C         -1.1595418764       -0.8469728522       -0.7234124984
 C         -2.1469830824        0.2471063654       -0.7091207043
 C         -2.5439697245        0.7537348493        0.4709652546
 C         -3.6225901960        1.7742725897        0.7083875825
 C         -4.9721289230        1.0797040421        0.9632995013
 C         -5.7889042903        0.7801735443       -0.2930249525
 H         -6.6541546760        0.1889744529        0.0158088205
 H         -6.1651004678        1.7175917004       -0.7080163687
 C         -5.0442969296        0.0212257150       -1.3945238216
 H         -5.7905547965       -0.4444153406       -2.0413996981
 H         -4.4535732062       -0.7834342756       -0.9527536608
 C         -4.1410183721        0.9239554066       -2.2477704141
 H         -4.3528736270        0.7492004693       -3.3045397865
 H         -4.3919879470        1.9658583547       -2.0506406640
 C         -2.6319202345        0.7076145437       -2.0561742207
 H         -2.2848754109       -0.0633829997       -2.7510337744
 H         -2.1009631068        1.6280311818       -2.3177281798
 H         -5.5764048008        1.7150568195        1.6140926930
 H         -4.7763728263        0.1509909130        1.5055620071
 H         -3.3435911895        2.3270294173        1.6067550086
 H         -3.6935471792        2.4638977386       -0.1264761852
 O         -2.0382495984        0.3273286115        1.6618932825
 C         -1.1227888946       -0.7058037871        1.7291207449
 O         -0.7526158079       -0.9958239567        2.8861555653
 H          1.6041609233       -0.2043257938        0.4579873399
 C          2.0546341022       -0.9654067552       -0.1626703183
 C          1.4751087914       -2.2265930411       -0.2119217372
 C          2.0729238234       -3.2025093570       -0.9991359816
 C          3.2133372113       -2.9109907158       -1.7270186239
 C          3.7834025227       -1.6527057726       -1.6796501834
 C          3.1958423126       -0.6701863906       -0.8895730749
 N          3.7265738595        0.6244490071       -0.8483904418
 S          3.4731187175        1.6416002184        0.4434723889
 O          4.4320740100        2.7085051235        0.2453969220
 O          3.5632642073        0.9475943300        1.7074614849
 C          1.8376387210        2.2981948555        0.1990187940
 C          1.0073960319        2.4592192699        1.2899735152
 C         -0.2340120381        3.0459870369        1.1078934373
 C         -0.6235959575        3.4559760355       -0.1572687408
 C          0.2177426515        3.2782460332       -1.2444453843
 C          1.4631148363        2.6978722892       -1.0679425487
 H          2.1440844433        2.5499285996       -1.8894169170
 H         -0.0893418211        3.5959626908       -2.2280960364
 H         -1.5871790220        3.9200411463       -0.2933209236
 H         -0.8879699676        3.1765956059        1.9552505469
 H          1.3412230958        2.1137507733        2.2565639886
 H          4.6179908407        0.7571784535       -1.3008721669
 H          4.6705897152       -1.4259137953       -2.2506590586
 H          3.6659627332       -3.6762050993       -2.3392447169
 H          1.6444784659       -4.1901020032       -1.0471816058
 C          0.2416465798       -2.4780153590        0.6201253827
 H          0.5532764667       -2.5464263043        1.6737009036
 C         -0.4858602557       -3.7535793260        0.2425517531
 C         -0.1081761758       -5.0603861960        0.8707973246
 C         -1.3942825996       -4.3909319524        1.2489763419
 H         -2.3230101886       -4.8227635294        0.9072580338
 H         -1.4625166704       -3.9207892040        2.2196586242
 H         -0.1571928094       -5.9559002657        0.2696877054
 H          0.6949294345       -5.0554190668        1.5923977292
 H         -0.8068896036       -3.7552428729       -0.7930474424
 O         -0.7681338878       -1.3427102444       -1.8122427173
