  62
        -98.93312011
 C         -2.2679114994       -0.7912644495       -0.1704394700
 C         -3.5041286895       -1.1531779493        0.4154707499
 C         -4.6922872694       -0.4505236093       -0.0908000804
 C         -4.5445269492        0.4638033205       -1.0669310806
 C         -5.6409053490        1.3240124905       -1.6283999210
 C         -5.9539567891        2.4772208907       -0.6533979613
 C         -7.3526021291        2.4210986910       -0.0384086814
 H         -7.3781965392        3.1419432412        0.7815579684
 H         -8.0812912590        2.7447164309       -0.7845495516
 C         -7.7968616193        1.0524829812        0.4866219688
 H         -8.6735342894        1.2225903714        1.1152152787
 H         -8.1274041993        0.4296393110       -0.3458028810
 C         -6.7532661495        0.2737275613        1.2978624092
 H         -6.0209978995        0.9527407113        1.7352567191
 H         -7.2655183996       -0.2182096285        2.1271983892
 C         -6.0189414495       -0.8270498090        0.5092738395
 H         -6.6762980294       -1.2171704391       -0.2725181805
 H         -5.7925658097       -1.6527617989        1.1902910397
 H         -5.2042755192        2.4661073508        0.1406455488
 H         -5.8461742889        3.4310704006       -1.1719028815
 H         -5.2880345989        1.7176351602       -2.5817080810
 H         -6.5280391691        0.7205122705       -1.8063942809
 O         -3.3401642391        0.7757480302       -1.6128850606
 C         -2.1714959392        0.1685723102       -1.1772432203
 O         -1.1429875791        0.5633431300       -1.7579907602
 O         -3.6079339997       -2.0201309090        1.3251527301
 C         -0.9983952095       -1.4602273295        0.3257600103
 C         -0.0671046195       -0.4160938495        0.8900189401
 C         -0.5263572396        0.3909675508        1.9290475499
 C          0.2803915105        1.3709670209        2.4720701897
 C          1.5659666505        1.5628350507        1.9964930799
 C          2.0325303706        0.7665524304        0.9577152801
 C          1.2189877506       -0.2197783397        0.4153087502
 H          1.6075570206       -0.8221747199       -0.3881673996
 N          3.3187557807        0.9665197901        0.4329891502
 S          4.1839296106       -0.3480524001       -0.1711542294
 O          3.7415040608       -0.6356649304       -1.5120385494
 O          4.1373979104       -1.4472076099        0.7673152909
 C          5.8219520007        0.3561400397       -0.2181987093
 C          6.1453809609        1.2020051995       -1.2625694295
 C          7.4044904310        1.7799203493       -1.2912264295
 C          8.3143214208        1.5042715695       -0.2810123693
 C          7.9763803306        0.6517262298        0.7591135108
 C          6.7179152606        0.0716008999        0.7948401108
 H          6.4132245004       -0.6024890199        1.5791253510
 H          8.6869928405        0.4371195299        1.5408801010
 H          9.2939155709        1.9548503994       -0.3065738493
 H          7.6714009611        2.4412621591       -2.0997302996
 H          5.4087775210        1.3791687793       -2.0290244896
 H          3.8954310707        1.5595210502        1.0137855601
 H          2.1977049306        2.3294095107        2.4187670497
 H         -0.0904007296        1.9883210111        3.2765707995
 H         -1.5303579396        0.2370252810        2.3013122198
 H         -1.3159321597       -2.1161537193        1.1501512104
 C         -0.3747898795       -2.3123556898       -0.7579669495
 C          0.5412027904       -3.4386934098       -0.3866098191
 C         -0.8254670996       -3.7309210498       -0.9273379992
 H         -0.9109554495       -4.1281159901       -1.9275920691
 H         -1.5777893197       -4.0976208596       -0.2443961692
 H          1.4012881104       -3.6291360600       -1.0113682589
 H          0.7222078802       -3.6076982596        0.6643928310
 H         -0.1482708493       -1.7495712101       -1.6572641596
