  62
        -98.93898785
 C         -1.9281664382       -0.6106115738       -0.5096078910
 C         -2.8316858903       -0.9880256390        0.5185086951
 C         -3.9223698428       -0.0533400615        0.8094767256
 C         -3.9955942435        1.1084315424        0.1359931527
 C         -5.0266935721        2.1860897476        0.3365503317
 C         -6.3377704611        1.9455622652       -0.4243892811
 C         -7.2233154360        0.8340578738        0.1404411309
 H         -7.3788883266        1.0022087721        1.2064987525
 H         -8.1956771886        0.9202751820       -0.3485794408
 C         -6.6810320357       -0.5841717975       -0.0855743507
 H         -5.9149693580       -0.5608264293       -0.8641043354
 H         -7.4856447569       -1.2281496047       -0.4475868812
 C         -6.0970952649       -1.2464222050        1.1624035501
 H         -6.8868075503       -1.3940858999        1.9022966337
 H         -5.7112361151       -2.2291397799        0.8800269250
 C         -4.9541145502       -0.4601787590        1.8178395487
 H         -5.3470610276        0.4156238379        2.3339597506
 H         -4.4654179254       -1.1087784131        2.5488463168
 H         -6.1000270126        1.7281132308       -1.4683259952
 H         -6.9038910144        2.8796609006       -0.4005617163
 H         -5.2371186370        2.2975006818        1.4007226815
 H         -4.5809309913        3.1138784873       -0.0289695040
 O         -3.0969251360        1.4506449814       -0.8226379346
 C         -2.0509794682        0.6031026691       -1.1874955859
 O         -1.3483809066        1.0597313314       -2.1061572197
 H          0.4734827259        0.7361293134       -0.1567282556
 C          0.8623646669       -0.1126723723        0.3861296665
 C          0.3285105873       -1.3782727614        0.1809747926
 C          0.8438061245       -2.4471131414        0.9066092421
 C          1.8649011564       -2.2574781146        1.8201239463
 C          2.4076365537       -0.9993804282        2.0071238349
 C          1.9040774222        0.0750005728        1.2831225393
 N          2.4575970152        1.3689382653        1.4243867764
 S          3.3917185159        1.8828355300        0.1299224398
 O          3.9500897755        3.1539914564        0.5339433513
 O          2.6034993590        1.8671409385       -1.0727151650
 C          4.6891536349        0.6597322078        0.0310967822
 C          5.8857420770        0.8957451430        0.6794696709
 C          6.8613584671       -0.0882369931        0.6660620227
 C          6.6192960176       -1.2905481733        0.0188406532
 C          5.4117175370       -1.5134312293       -0.6249796363
 C          4.4341200436       -0.5308863230       -0.6204888143
 H          3.4867212922       -0.6659892731       -1.1170730314
 H          5.2237832336       -2.4473669959       -1.1295547408
 H          7.3765935567       -2.0584221571        0.0135397338
 H          7.8028686499        0.0840414821        1.1621738550
 H          6.0300203597        1.8466144396        1.1667281756
 H          2.9918848150        1.4840656397        2.2756226726
 H          3.2098747058       -0.8441139350        2.7130427671
 H          2.2451228905       -3.0946793827        2.3845189671
 H          0.4197745914       -3.4299147898        0.7638792978
 C         -0.8051127464       -1.5937153743       -0.7901985003
 H         -1.2357261628       -2.5828769303       -0.5623139978
 C         -0.3456975191       -1.6388435076       -2.2385181242
 C          0.8451714178       -0.9013059399       -2.7630920260
 C          0.9015382063       -2.3895322888       -2.6058317875
 H          0.8941901722       -3.0015711494       -3.4949306711
 H          1.4960488197       -2.7876011838       -1.7969343507
 H          0.7683766772       -0.4837414520       -3.7558247558
 H          1.4017991802       -0.2671760380       -2.0908104107
 H         -1.1872829353       -1.7235076393       -2.9192735351
 O         -2.7281461538       -2.0672069295        1.1608216032
