  62
        -98.94594065
 C         -1.5750570030       -1.5697438698       -0.2972480809
 C         -1.4286162986       -0.2035999323       -0.6404436556
 C         -2.6780751832        0.5640521056       -0.7469160147
 C         -3.8533691825       -0.0545205912       -0.5330089722
 C         -5.1911592514        0.6256892932       -0.5388699982
 C         -5.5661453754        1.1193833709        0.8659203452
 C         -4.4569759862        1.9079868971        1.5628394791
 H         -4.8463255872        2.2257107766        2.5326499534
 H         -3.6136259649        1.2415955021        1.7583341599
 C         -3.9627085451        3.1346323561        0.7834385128
 H         -4.6975332959        3.4118470645        0.0266603721
 H         -3.8765512725        3.9757754789        1.4744988329
 C         -2.5947121342        2.9581522436        0.1213751227
 H         -1.8738067027        2.5908462418        0.8559328620
 H         -2.2525602632        3.9407175197       -0.2130065936
 C         -2.5594603832        2.0214817873       -1.0921602809
 H         -3.3311176840        2.3133545076       -1.8071886614
 H         -1.5814472805        2.1325959462       -1.5687221781
 H         -6.4611479579        1.7392336532        0.7863480821
 H         -5.8086471431        0.2516403419        1.4839412158
 H         -5.1650696110        1.4621849071       -1.2343914562
 H         -5.9421407918       -0.0912796698       -0.8748552308
 O         -3.9533267316       -1.3745833422       -0.2282293935
 C         -2.8204651742       -2.1597308507       -0.0858129438
 O         -3.0506211275       -3.3457547524        0.2274857920
 H          2.2354204574       -1.3988335953       -0.2614989636
 C          1.7916969752       -1.3273764716        0.7164141327
 C          0.5207530047       -1.8218760722        0.9569604826
 C         -0.0056953405       -1.7183224578        2.2429867734
 C          0.7205827434       -1.1290431170        3.2588094234
 C          1.9828496059       -0.6173467045        3.0105937573
 C          2.5174145794       -0.7186111878        1.7322658822
 N          3.7990258020       -0.2237708338        1.4573732019
 S          4.1868985798        0.4207956187       -0.0308604873
 O          4.3306364749       -0.6295901945       -1.0082310651
 O          5.3856342646        1.1926976854        0.2302648649
 C          2.8767093175        1.5363814819       -0.4989970654
 C          2.4585380496        1.5573779056       -1.8122053375
 C          1.5040728484        2.4828755327       -2.1987657894
 C          0.9827605874        3.3646773614       -1.2671774887
 C          1.4050861508        3.3245651026        0.0515999165
 C          2.3655704147        2.4069047948        0.4416273129
 H          2.7139285746        2.3613067596        1.4609607108
 H          0.9857574694        4.0036573515        0.7770468860
 H          0.2371896316        4.0839697266       -1.5690800863
 H          1.1639189951        2.5053752436       -3.2221721520
 H          2.8806285960        0.8450002904       -2.5034336827
 H          4.2405800453        0.2795902450        2.2121889644
 H          2.5502315443       -0.1483748935        3.8000291693
 H          0.2996714230       -1.0582761169        4.2505220009
 H         -0.9986892899       -2.1051995240        2.4302414795
 C         -0.3383423849       -2.4342196710       -0.1217867178
 H         -0.6933899380       -3.4128466406        0.2311566885
 C          0.3777865331       -2.6209949604       -1.4418353495
 C          1.3020857688       -3.7848156511       -1.6304291646
 C         -0.0191664642       -3.7538977221       -2.3373656438
 H         -0.0308985609       -3.5884186233       -3.4042552009
 H         -0.8021248290       -4.4122043509       -1.9893707082
 H          1.4181578303       -4.4683282748       -0.8027258682
 H          2.2031197351       -3.6387285959       -2.2071888083
 H          0.6407807545       -1.6819073456       -1.9151557373
 O         -0.3179016581        0.3485448461       -0.8439948365
