  62
        -98.94216171
 C         -2.2155283493       -0.8954271803        0.6111323405
 C         -2.1622305693       -0.1352438211       -0.5826701899
 C         -2.5465265296        1.2779659689       -0.4589947509
 C         -2.8780560398        1.7686750196        0.7492095288
 C         -3.3309249002        3.1754537797        1.0095125579
 C         -4.8576866402        3.2980022893        0.9053396477
 C         -5.4424361299        2.6749761084       -0.3620737820
 H         -5.2875018997        1.5941370384       -0.3318611813
 H         -6.5205708400        2.8469127182       -0.3409385322
 C         -4.8612147200        3.2320979277       -1.6690308823
 H         -5.6813537999        3.4248447571       -2.3636720325
 H         -4.3665824102        4.1852036679       -1.4786144628
 C         -3.8870840197        2.2914741774       -2.3809897616
 H         -3.7056404297        2.6841735468       -3.3849479318
 H         -4.3445166395        1.3053110173       -2.4929412010
 C         -2.5201596697        2.1130780981       -1.7077907014
 H         -1.8671576595        1.5816892378       -2.4072375710
 H         -2.0752932199        3.0903365884       -1.5068383320
 H         -5.3037165802        2.7999917097        1.7691856379
 H         -5.1215889904        4.3561459393        0.9485324670
 H         -3.0195970003        3.4552631304        2.0174441377
 H         -2.8507068202        3.8416010693        0.2951307175
 O         -2.8785008898        1.0166609403        1.8800054093
 C         -2.5445107295       -0.3278572796        1.8407273102
 O         -2.5667188495       -0.8968707189        2.9518204205
 H          0.2544590707       -0.9121039393        1.3848498908
 C          0.5517832809       -1.6141026497        0.6134313712
 C         -0.3991244789       -2.4751864403        0.0796150217
 C          0.0014857914       -3.3691078308       -0.9039944177
 C          1.3095773414       -3.3731323408       -1.3588174176
 C          2.2439146312       -2.4932361003       -0.8444375981
 C          1.8571506409       -1.6096475297        0.1529784713
 N          2.8050648207       -0.6912957692        0.6724753608
 S          3.1198167305        0.6386856202       -0.3286079400
 O          2.3268469102        1.7660080303        0.1206827792
 O          2.9720606307        0.2441664893       -1.7054217497
 C          4.8397433804        0.9365621008        0.0321479500
 C          5.7822618306        0.1241993106       -0.5675639094
 C          7.1211568506        0.3153859911       -0.2675962894
 C          7.4932973703        1.3099471618        0.6248095000
 C          6.5358603500        2.1181898419        1.2181732694
 C          5.1944466301        1.9302468815        0.9228233294
 H          4.4168815599        2.5391884416        1.3551617989
 H          6.8277816798        2.8925970124        1.9092225389
 H          8.5360845302        1.4574430821        0.8574137900
 H          7.8683942007       -0.3098417790       -0.7290676990
 H          5.4467036608       -0.6286593699       -1.2613939890
 H          2.5046251205       -0.3202674387        1.5650272306
 H          3.2561046712       -2.4692870603       -1.2125063280
 H          1.6010463817       -4.0657922412       -2.1336757071
 H         -0.7157242384       -4.0518126012       -1.3295745173
 C         -1.8162600389       -2.3609805703        0.5884999115
 H         -1.8365225290       -2.7002172596        1.6346378217
 C         -2.8163093787       -3.1706576610       -0.2091932981
 C         -3.0490624584       -4.6147404208        0.1157906828
 C         -4.0930474187       -3.5935451408        0.4509419021
 H         -5.0039425186       -3.5743169314       -0.1282684780
 H         -4.2289012688       -3.3178977602        1.4868511119
 H         -3.2472122182       -5.2999889214       -0.6944007368
 H         -2.4807404284       -5.0421789202        0.9278641631
 H         -2.8671643487       -2.8611724916       -1.2468106483
 O         -1.8111339091       -0.6117012217       -1.6936847996
