  62
        -98.94265222
 C          1.7810861245        1.2569337933       -0.2462985639
 C          0.7224703833        1.6958146193       -1.0712885344
 C         -0.3363453985        2.4931351469       -0.4295254483
 C         -0.2607387862        2.7401380764        0.8917143570
 C         -1.1688952465        3.5220434029        1.8185769885
 C         -2.5104622956        4.0545255786        1.3250824490
 C         -3.5723413658        2.9773578809        1.0979568184
 H         -3.9066935343        2.6161782723        2.0739651652
 H         -4.4292695764        3.4367344748        0.6005610203
 C         -3.1255535955        1.7579608746        0.2942281303
 H         -2.3020156897        1.2531253562        0.8060711807
 H         -3.9607660660        1.0526999102        0.2702507161
 C         -2.7223032205        2.0383381355       -1.1509879775
 H         -3.5512086397        2.5163013545       -1.6771473193
 H         -2.5294826605        1.0744318339       -1.6306784121
 C         -1.4686310183        2.9078466042       -1.3262747277
 H         -1.7006931066        3.9618285775       -1.1959676152
 H         -1.1075136901        2.7739391812       -2.3504385944
 H         -2.3673417656        4.6552990190        0.4316621658
 H         -2.8856326707        4.7269363659        2.1014071080
 H         -1.3355504930        2.8739847443        2.6857214189
 H         -0.5671969624        4.3651197007        2.1761806600
 O          0.7870602847        2.2997194459        1.6484631752
 C          1.7979572004        1.5167467171        1.1225488365
 O          2.6453833034        1.1406596729        1.9563522698
 O          0.6593364092        1.4274617849       -2.3029615260
 C          2.8437287034        0.3485946185       -0.8375392057
 C          2.7101691395       -1.0230859239       -0.2204507521
 C          3.7885179130       -1.8026251942        0.1749867771
 C          3.5759562758       -3.0353472130        0.7696911902
 C          2.2957234501       -3.5061436499        0.9940570827
 C          1.2088408717       -2.7388435739        0.5867777988
 C          1.4267919470       -1.5246066381       -0.0400394311
 H          0.5820604329       -0.9245051083       -0.3438679106
 N         -0.1063947691       -3.1889096366        0.7796838284
 S         -1.3719916847       -2.1495079263        1.1298692941
 O         -0.9117445394       -0.8554606679        1.5766873906
 O         -2.2078004120       -2.8780033812        2.0630584730
 C         -2.2727465894       -1.9820941969       -0.4008085772
 C         -1.6550189435       -2.1451683604       -1.6237267554
 C         -2.4020753621       -1.9704879635       -2.7793902735
 C         -3.7457113775       -1.6419348553       -2.6960177914
 C         -4.3561413675       -1.4949161238       -1.4599489067
 C         -3.6145102666       -1.6660788229       -0.3024773366
 H         -4.0481569056       -1.5706837596        0.6800492928
 H         -5.4030358679       -1.2457747688       -1.3945866821
 H         -4.3196035057       -1.5025425523       -3.5984313049
 H         -1.9265620429       -2.0879341288       -3.7399780517
 H         -0.6099988322       -2.4039183129       -1.6702985273
 H         -0.1889975453       -4.0429843259        1.3108158866
 H          2.1334347595       -4.4547120196        1.4829154272
 H          4.4213494484       -3.6307168067        1.0798168818
 H          4.7935504696       -1.4408895970        0.0319786289
 H          2.5985269387        0.2700216701       -1.9077207461
 C          4.2264410812        0.9462994629       -0.6950648350
 C          5.2915948302        0.6352769622       -1.7029608034
 C          4.6650315174        1.9957697501       -1.6707496530
 H          5.2485509972        2.8271543328       -1.3050189913
 H          3.9733844172        2.2606203682       -2.4570994115
 H          6.3106604256        0.5342822229       -1.3611754280
 H          5.0313630488       -0.0214205187       -2.5191882299
 H          4.5190572892        1.0724353754        0.3411941751
