  62
        -98.93552958
 C          2.3810636650        1.4030541575        0.0326068517
 C          3.0449209565        0.6574359932        1.0391961702
 C          3.8752229151       -0.4775201409        0.6028599231
 C          3.9530446717       -0.7678582953       -0.7088238520
 C          4.7374120562       -1.8280122353       -1.4533083663
 C          5.3753592390       -2.9949573338       -0.7045218341
 C          4.3812102423       -3.9796001591       -0.0893547270
 H          3.8837817751       -4.5219062733       -0.8975553834
 H          4.9416537693       -4.7060351567        0.5030552384
 C          3.2923403997       -3.3619504123        0.7849553624
 H          2.6538026681       -4.1727055494        1.1468941132
 H          2.6585911594       -2.7082452310        0.1807955275
 C          3.7911560411       -2.5856082958        2.0022438046
 H          4.4451308575       -3.2225150919        2.6010051922
 H          2.9173282580       -2.3352910775        2.6100434499
 C          4.5318164943       -1.2731425914        1.6938023113
 H          4.4975641878       -0.6482131721        2.5908841441
 H          5.5781728421       -1.4548292885        1.4606723358
 H          6.0638341375       -2.6264113053        0.0500629433
 H          5.9723598736       -3.5450456850       -1.4369710208
 H          5.5250388479       -1.2902300478       -1.9927582654
 H          4.0563388375       -2.2209623483       -2.2151953951
 O          3.2923358739       -0.0258930988       -1.6437246767
 C          2.4859552398        1.0538645365       -1.3121100220
 O          1.9439544030        1.5871407012       -2.2996095524
 O          2.9590265354        0.9418510021        2.2637027749
 C          1.5271591221        2.5698198163        0.5001549100
 C          0.1017182667        2.1214621302        0.6972700307
 C         -0.5457930809        2.2848104506        1.9155182717
 C         -1.8413411045        1.8289960353        2.0910745502
 C         -2.5147169105        1.2013432137        1.0583898812
 C         -1.8740276982        1.0296932088       -0.1618296741
 C         -0.5791934486        1.4914681101       -0.3363888682
 H         -0.0844024874        1.3515512645       -1.2870031625
 N         -2.5489710401        0.3755797136       -1.2162840783
 S         -2.9118181222       -1.2448582242       -0.9296375043
 O         -1.9609320452       -1.8419753648       -0.0183852023
 O         -3.0220314910       -1.8548044355       -2.2369119236
 C         -4.5243802437       -1.1815004344       -0.1781483663
 C         -4.7065238148       -1.6564987892        1.1057224162
 C         -5.9709408313       -1.5906636592        1.6706071472
 C         -7.0238669365       -1.0538106362        0.9455602458
 C         -6.8244242309       -0.5835980395       -0.3441449629
 C         -5.5634918453       -0.6474721269       -0.9151743280
 H         -5.3646999287       -0.2988205018       -1.9148175265
 H         -7.6456919269       -0.1674446347       -0.9049524238
 H         -8.0060152847       -1.0019263994        1.3882486342
 H         -6.1277929281       -1.9562134457        2.6726968003
 H         -3.8559912983       -2.0594142683        1.6320745791
 H         -2.0526358333        0.4500143784       -2.0943741198
 H         -3.5224705727        0.8420063220        1.1888728082
 H         -2.3309726078        1.9609540807        3.0436924905
 H         -0.0191711600        2.7546552010        2.7331714227
 H          1.9316306415        2.8286760893        1.4913108852
 C          1.6589567151        3.8034512290       -0.3823937299
 C          0.5417176917        4.3615881068       -1.2075936799
 C          0.9910918077        5.0839381026        0.0245366998
 H          1.5350107525        6.0098731352       -0.0831579465
 H          0.3409269192        5.0484255507        0.8857161804
 H          0.7938861345        4.7698432552       -2.1744920522
 H         -0.4137603014        3.8617935307       -1.1849613083
 H          2.6532339014        3.8881873474       -0.8092601983
