  62
        -98.93967959
 C         -1.7889604131       -0.7538408471        0.8892047320
 C         -2.9709026697       -1.0954237266        0.1867556935
 C         -4.0193254263       -0.0623017917        0.1506046403
 C         -3.8033369257        1.1294598381        0.7341172546
 C         -4.7589065288        2.2862129436        0.7106874357
 C         -4.4964682392        3.2014853594       -0.4935339142
 C         -4.3822031869        2.4563885814       -1.8235246498
 H         -4.2294900163        3.2051428255       -2.6039554446
 H         -3.4893792240        1.8268374331       -1.8051743929
 C         -5.6023589576        1.5936775905       -2.1747276907
 H         -6.4611230394        1.9057650591       -1.5791638836
 H         -5.8583850002        1.7593340592       -3.2234009407
 C         -5.3855236133        0.0893434855       -2.0013984372
 H         -4.4733912900       -0.2113830020       -2.5231413350
 H         -6.2205423729       -0.4315316244       -2.4777079274
 C         -5.3008950818       -0.4101603999       -0.5536067720
 H         -6.1612706656       -0.0461898286        0.0116787389
 H         -5.3431729163       -1.5030188759       -0.5783607949
 H         -5.3042474266        3.9331914737       -0.5532516836
 H         -3.5618358290        3.7407189390       -0.3226853510
 H         -5.7786523255        1.9076137170        0.6765784114
 H         -4.6255212471        2.8614884852        1.6284482807
 O         -2.6486047418        1.4327731943        1.3782566568
 C         -1.6242730679        0.5065158273        1.4733282252
 O         -0.6265708505        0.9161898441        2.0978877438
 H          2.0757641208       -1.3804166719        1.0891991759
 C          1.6927675363       -1.4758753150        0.0819664066
 C          0.3295394232       -1.6433190339       -0.1188378848
 C         -0.1423377784       -1.7547874023       -1.4220592438
 C          0.7267959448       -1.6774832776       -2.4954603593
 C          2.0841205674       -1.5009450430       -2.2921241683
 C          2.5681456798       -1.4064940782       -0.9950657635
 N          3.9573199121       -1.2328360460       -0.8019897522
 S          4.5898579005        0.2755695557       -1.1696502343
 O          4.0296089671        0.7169300805       -2.4200639157
 O          6.0262532588        0.1333690832       -1.1167431545
 C          4.0470376178        1.3163021533        0.1740669932
 C          4.9494098424        1.6740755409        1.1565205168
 C          4.4994641660        2.4044407873        2.2445382749
 C          3.1573290160        2.7396815029        2.3426209949
 C          2.2614213518        2.3683356640        1.3512202724
 C          2.7102258804        1.6556063215        0.2504603223
 H          2.0384258181        1.3561292902       -0.5386303588
 H          1.2112469907        2.5946775510        1.4464804958
 H          2.8001828017        3.2898036654        3.1989314226
 H          5.1913661395        2.6988789020        3.0173168725
 H          5.9797290203        1.3768023456        1.0451964988
 H          4.2731680776       -1.5058700892        0.1186027641
 H          2.7727319325       -1.4217061886       -3.1171755078
 H          0.3434226421       -1.7577603423       -3.5015693843
 H         -1.1982422412       -1.9039977360       -1.5872034333
 C         -0.6091551611       -1.6975118248        1.0638635665
 H         -0.0598516878       -1.3251969243        1.9395641449
 C         -1.0189476372       -3.1330343767        1.3343342594
 C         -0.0818670642       -4.0319301483        2.0805234373
 C         -1.3425760027       -3.5530532904        2.7348643231
 H         -2.1479830433       -4.2553559026        2.8878713751
 H         -1.2620912282       -2.8064981292        3.5119090759
 H          0.8536096320       -3.6141211763        2.4206243074
 H         -0.0172656779       -5.0672145040        1.7830412244
 H         -1.6064053959       -3.5671832519        0.5364695207
 O         -3.1667947137       -2.1951432931       -0.3954752911
