  62
        -98.93921849
 C          2.4166856485        1.0036160877        0.0541698797
 C          2.2446106589       -0.3409479229       -0.3552728407
 C          3.1736727277       -1.3137777520        0.2357733096
 C          4.0885325228       -0.9147182494        1.1366863136
 C          5.0805740534       -1.7949343798        1.8468335482
 C          6.3570799756       -2.0722299855        1.0408766238
 C          6.1857394843       -3.0267551665       -0.1415441193
 H          7.1872152062       -3.3012663137       -0.4788384871
 H          5.6952751412       -3.9395593871        0.1979683909
 C          5.4114833508       -2.4340694097       -1.3271914570
 H          5.9375043152       -2.6634315221       -2.2566852434
 H          5.3831391869       -1.3457182177       -1.2365327804
 C          3.9821511611       -2.9554248155       -1.4754579218
 H          3.5169070794       -2.4427724406       -2.3212420045
 H          4.0035392338       -4.0241938364       -1.6998386255
 C          3.0978108190       -2.7330932646       -0.2416321595
 H          2.0612227540       -2.9355336764       -0.5215130763
 H          3.3850659222       -3.4181294565        0.5555372802
 H          6.7592361098       -1.1205163481        0.6858817583
 H          7.0877901819       -2.5059317967        1.7274393130
 H          4.6066167535       -2.7389821770        2.1170223304
 H          5.3592524182       -1.2707321028        2.7634906055
 O          4.2037724108        0.3811965122        1.5295043117
 C          3.3956545837        1.3638786533        0.9874547512
 O          3.6400324734        2.5118001530        1.4100513879
 O          1.3674648625       -0.7408505339       -1.1680291524
 C          1.5730679601        2.1550559859       -0.4725804778
 C          0.2269866503        2.2078118663        0.2111931628
 C         -0.1223842661        3.2892053295        1.0110077162
 C         -1.3607832695        3.3373903621        1.6272202366
 C         -2.2718868409        2.3087415825        1.4666534783
 C         -1.9304433736        1.2216405493        0.6723235019
 C         -0.6926052678        1.1821148126        0.0457147929
 H         -0.4263262306        0.3309809799       -0.5639229247
 N         -2.8250840860        0.1382005996        0.5261010561
 S         -4.3690672769        0.4648387882       -0.0740448474
 O         -4.2894043127        0.9499875363       -1.4359620184
 O         -5.0573163486        1.3193628611        0.8592533283
 C         -5.0788973723       -1.1681511605       -0.0410368927
 C         -5.1036146146       -1.9246912376       -1.1965706908
 C         -5.6333259541       -3.2047293749       -1.1482560043
 C         -6.1227750642       -3.7041146916        0.0491278448
 C         -6.0900836086       -2.9323879819        1.2012386042
 C         -5.5628006954       -1.6517426832        1.1592737669
 H         -5.5233252429       -1.0137367328        2.0265502863
 H         -6.4729637266       -3.3242992267        2.1297058503
 H         -6.5342742255       -4.7005279147        0.0838176572
 H         -5.6616744787       -3.8062446451       -2.0426124775
 H         -4.7192978816       -1.4936379198       -2.1073024116
 H         -2.4093375176       -0.5886039236       -0.0436474187
 H         -3.2414461007        2.3416319468        1.9355156291
 H         -1.6194586037        4.1846767406        2.2444564095
 H          0.5887684729        4.0898249710        1.1562064288
 H          2.1193102828        3.0681525228       -0.2006545691
 C          1.4129006666        2.1272900126       -1.9808636390
 C          1.0598146041        3.3947418734       -2.6964282819
 C          2.4322997786        2.8095839937       -2.8399982144
 H          2.7045273681        2.3517305450       -3.7791357709
 H          3.2526432982        3.3069177474       -2.3427445795
 H          0.3846499885        3.3405585055       -3.5367598527
 H          0.9499395465        4.2899774091       -2.1030120704
 H          0.9882347512        1.2046354624       -2.3535553615
