  62
        -98.93567451
 C         -2.1325102112       -0.5073957196        0.8604105659
 C         -2.4368783506       -0.1938222464       -0.4879268078
 C         -3.1941373386        1.0500371311       -0.6948620266
 C         -3.4908980824        1.8416646040        0.3503474580
 C         -4.2448969007        3.1424015342        0.2939583959
 C         -5.7709234123        2.9772163770        0.2958507506
 C         -6.3697565585        2.4429205557       -1.0059602857
 H         -7.4504888096        2.5845319950       -0.9426922827
 H         -6.0114291304        3.0432329888       -1.8427909245
 C         -6.0823320094        0.9590043899       -1.2745739474
 H         -7.0019210081        0.4609963300       -1.5899849378
 H         -5.7600392177        0.4764442327       -0.3488777379
 C         -5.0341031635        0.7024131054       -2.3574997797
 H         -5.4045489206        1.0639544414       -3.3192738290
 H         -4.8835803967       -0.3771331765       -2.4404677224
 C         -3.6712631439        1.3519170730       -2.0833071413
 H         -2.9432343786        0.9326153131       -2.7822829161
 H         -3.7290623883        2.4285819864       -2.2413743317
 H         -6.2043926831        3.9603440884        0.4932017488
 H         -6.0504896714        2.3194727222        1.1221986288
 H         -3.9397153898        3.7056345729       -0.5883430396
 H         -3.9585494156        3.7068875594        1.1839732873
 O         -3.1026775214        1.5477056992        1.6204922102
 C         -2.4322845089        0.3692606238        1.9060868156
 O         -2.1459421900        0.2263076784        3.1123491027
 O         -2.1053116946       -0.9001305387       -1.4732820648
 C         -1.3968493280       -1.7818766318        1.2370313347
 C         -0.2105089612       -1.9829932093        0.3256183125
 C         -0.0548441859       -3.0817042894       -0.5077679979
 C          1.0648513687       -3.1935101185       -1.3137141476
 C          2.0472576581       -2.2211819864       -1.3078523942
 C          1.9037677814       -1.1187438455       -0.4748230084
 C          0.7865278367       -1.0146644530        0.3401437659
 H          0.6711354489       -0.1554564230        0.9908765127
 N          2.8837539217       -0.1061676362       -0.4743395058
 S          4.5007022743       -0.5949226635       -0.4525240457
 O          4.8836508337       -0.9735344672       -1.7893871803
 O          4.7036006265       -1.5981796872        0.5693237354
 C          5.3116457606        0.9261747534       -0.0027457916
 C          5.6743170615        1.1385135073        1.3136414035
 C          6.2866417735        2.3341452911        1.6554382061
 C          6.5208990349        3.2928035765        0.6811765567
 C          6.1505549986        3.0650912261       -0.6360582903
 C          5.5393411864        1.8714136565       -0.9849423702
 H          5.2430356268        1.6469472560       -1.9962446101
 H          6.3368524594        3.8120779865       -1.3907157026
 H          6.9981507472        4.2219414170        0.9499884121
 H          6.5779691379        2.5127148632        2.6779971048
 H          5.4803819780        0.3619047069        2.0362273730
 H          2.7114972884        0.5817090404        0.2464045006
 H          2.9220525174       -2.3010351857       -1.9327289087
 H          1.1720865863       -4.0499047029       -1.9626329700
 H         -0.8202524929       -3.8391671048       -0.5461877136
 H         -1.0076589750       -1.5957994247        2.2520863515
 C         -2.2939045947       -3.0066802195        1.3389677284
 C         -3.7291869024       -2.8745473870        1.7509810044
 C         -3.3859869344       -3.2903532395        0.3537756847
 H         -3.5629253758       -4.3170383562        0.0680258705
 H         -3.5330547674       -2.5840368181       -0.4473959998
 H         -4.1400166201       -3.6120747425        2.4239840858
 H         -4.1130326685       -1.8771613200        1.9106939339
 H         -1.7594503736       -3.8648900522        1.7350873242
