  62
        -98.93184541
 C         -2.4031666421       -0.6242961928        0.4889365978
 C         -3.2207564988       -0.4274316548       -0.6482574312
 C         -4.3255692075        0.5485440290       -0.5112226953
 C         -4.4740826078        1.2117026921        0.6494573969
 C         -5.5312092946        2.2162148154        1.0238015280
 C         -6.8863303686        1.5608733691        1.3364384791
 C         -7.3104147594        0.4651097065        0.3619609438
 H         -6.5432068072       -0.3110693531        0.3397060661
 H         -8.2227479703        0.0073716935        0.7536277397
 C         -7.5981728083        0.9359658130       -1.0616225062
 H         -8.3955579356        1.6821554972       -1.0373731791
 H         -7.9689098235        0.0724909332       -1.6200035371
 C         -6.4089849817        1.5208207248       -1.8263574603
 H         -6.1973071688        2.5368325492       -1.5044424460
 H         -6.6994098280        1.5836458189       -2.8792429147
 C         -5.1398150808        0.6759351997       -1.7765908822
 H         -5.3791227699       -0.3480377289       -2.0854702388
 H         -4.4438483325        1.0492094395       -2.5375314709
 H         -7.6487921153        2.3410840579        1.3652139319
 H         -6.8231099808        1.1140136935        2.3317019996
 H         -5.6320245862        2.9617473818        0.2407668071
 H         -5.1753725608        2.7242140254        1.9228570529
 O         -3.6456246924        1.0048472688        1.7139135221
 C         -2.6097792374        0.0970614576        1.6669768411
 O         -1.9494116773        0.0133122241        2.7233642395
 O         -3.0646437207       -1.0284689814       -1.7417773707
 C         -1.2416990482       -1.6040983445        0.5240132682
 C          0.0192579903       -0.9454335017        0.0267675420
 C          0.0727451552       -0.3368157516       -1.2236277190
 C          1.2400473080        0.2620734877       -1.6603144770
 C          2.3714264201        0.2736973481       -0.8627271519
 C          2.3283476535       -0.3278661553        0.3873349784
 C          1.1559571513       -0.9346389938        0.8211495007
 H          1.1225771197       -1.3918836537        1.8013116492
 N          3.4669108415       -0.3032182877        1.2085927969
 S          4.9443524909       -0.7612440209        0.5568521007
 O          4.7713901608       -1.7022645561       -0.5249833345
 O          5.7286884380       -1.2128867229        1.6850007905
 C          5.6333070473        0.7608348551       -0.0576484570
 C          5.9985996230        0.8655487275       -1.3854135825
 C          6.5394917450        2.0584839697       -1.8394320939
 C          6.7058543809        3.1189280013       -0.9619652317
 C          6.3370155079        2.9963659790        0.3695243639
 C          5.7961623627        1.8065688571        0.8297130053
 H          5.5008221135        1.6699074913        1.8566638887
 H          6.4683397848        3.8231498241        1.0489401953
 H          7.1259364766        4.0464908175       -1.3175698801
 H          6.8275491004        2.1557039764       -2.8738683841
 H          5.8477123781        0.0159309488       -2.0324014133
 H          3.3264084127       -0.7183300149        2.1180741087
 H          3.2815031023        0.7425011043       -1.1993781899
 H          1.2694991192        0.7286881624       -2.6333381605
 H         -0.8089944320       -0.3440059119       -1.8462566289
 H         -1.0953211875       -1.8297070367        1.5925088227
 C         -1.5482480413       -2.9230906534       -0.1730029194
 C         -0.8681595127       -3.3898105843       -1.4212057083
 C         -0.5530046135       -4.0445632206       -0.1121477811
 H         -0.9093599581       -5.0470333923        0.0706684919
 H          0.4091875060       -3.8309035102        0.3304596282
 H         -1.4653819645       -3.9264370299       -2.1423701854
 H         -0.1156806518       -2.7577193367       -1.8652478623
 H         -2.5922811406       -3.1998600119       -0.0683476129
