  62
        -98.94253554
 C         -1.0250969392       -1.3368687424        0.6928551733
 C         -1.6296701317       -1.0067938133       -0.5471120909
 C         -2.4855632729        0.1919270935       -0.5358377767
 C         -2.6501196339        0.8996379677        0.5947469180
 C         -3.4603967152        2.1584303300        0.7470482017
 C         -4.9604400823        1.9152984266        0.9626793244
 C         -5.7283140216        1.4394139311       -0.2711436768
 H         -6.7918009796        1.5223684707       -0.0383903860
 H         -5.5244974411        2.1106508792       -1.1060772066
 C         -5.4265145150       -0.0071997334       -0.6868871386
 H         -4.9487990752       -0.5328955845        0.1430742291
 H         -6.3627293469       -0.5280719980       -0.8997992157
 C         -4.5433861645       -0.1390433548       -1.9281077697
 H         -5.0672826882        0.2658643366       -2.7969559658
 H         -4.3611510285       -1.2012444340       -2.1105281867
 C         -3.1830889772        0.5601500738       -1.8097803939
 H         -2.5492954971        0.2345874179       -2.6392197991
 H         -3.3069760139        1.6414229189       -1.8766465420
 H         -5.0840745808        1.1899694306        1.7700403006
 H         -5.3984284822        2.8597438121        1.2935681679
 H         -3.0675183097        2.6779432342        1.6237041376
 H         -3.3135938988        2.7947897134       -0.1265169423
 O         -2.0564662184        0.5470845115        1.7664009968
 C         -1.2370949282       -0.5689773414        1.8405981371
 O         -0.7616436547       -0.7735163874        2.9750711198
 H          0.9306216590       -0.8866611194       -1.0753378748
 C          1.6887788816       -1.2040637179       -0.3761556083
 C          1.3581287826       -2.0405803285        0.6810720973
 C          2.3626097417       -2.4410858104        1.5548935380
 C          3.6675209982       -2.0216732579        1.3681845713
 C          3.9906277997       -1.1782365166        0.3206647700
 C          2.9924696205       -0.7637073158       -0.5534126098
 N          3.2833494606        0.1091419766       -1.6182119363
 S          2.3303510964        1.4760075241       -1.7914806950
 O          1.0474881384        1.1348419680       -2.3461225738
 O          3.1431436299        2.3817726531       -2.5750971715
 C          2.1544621472        2.0970307036       -0.1297056974
 C          0.9884722389        1.8580076781        0.5671019542
 C          0.8961944774        2.2777034515        1.8847218915
 C          1.9680955247        2.9260767903        2.4779992985
 C          3.1309445516        3.1674046064        1.7616121487
 C          3.2300275348        2.7449112892        0.4463713769
 H          4.1123519925        2.9204124141       -0.1475404057
 H          3.9590525652        3.6773544944        2.2267496180
 H          1.8919637582        3.2446248763        3.5055930017
 H         -0.0048048239        2.0769022295        2.4431438988
 H          0.1747563257        1.3497774205        0.0724589844
 H          4.2607219211        0.3556678716       -1.6902899200
 H          5.0057870690       -0.8406880273        0.1783076630
 H          4.4382777135       -2.3434507692        2.0514065992
 H          2.1110743292       -3.0754386111        2.3919144098
 C         -0.0651405034       -2.5001908079        0.8787366065
 H         -0.1673077105       -2.7987506991        1.9347845089
 C         -0.4092625574       -3.7174170950        0.0320946169
 C          0.3649858427       -4.1189773608       -1.1832388073
 C          0.4684071457       -4.9336976651        0.0689565127
 H          0.0005511404       -5.9061805908        0.0940524826
 H          1.3883707038       -4.8694336408        0.6297512806
 H         -0.1898948210       -4.5115176022       -2.0216346463
 H          1.2079174415       -3.5107947713       -1.4731989413
 H         -1.4796868433       -3.8919998736       -0.0040159257
 O         -1.4818979182       -1.6559874071       -1.6125206048
