  62
        -98.93692628
 C          1.9472402979        1.0437091756        0.1650021610
 C          2.3462865713       -0.1707561094       -0.4425288331
 C          3.6682047588       -0.6879945730       -0.0484093716
 C          4.3947890992       -0.0216837774        0.8661211237
 C          5.7825437916       -0.3825530771        1.3137115702
 C          6.8095141008        0.0503273860        0.2477849906
 C          7.5463705050       -1.1079294015       -0.4250766626
 H          8.0723076917       -0.7016067156       -1.2916624092
 H          8.2989378148       -1.4977712216        0.2635677521
 C          6.6731642045       -2.2824314662       -0.8773182092
 H          6.4437379220       -2.9200400134       -0.0221650614
 H          7.2778646268       -2.8837298374       -1.5596346536
 C          5.3601851244       -1.9121784130       -1.5792032112
 H          5.4299637801       -0.9206570926       -2.0270587729
 H          5.2015268947       -2.6193640969       -2.3959940404
 C          4.1113946074       -1.9791159535       -0.6798113748
 H          3.2604039523       -2.3005376087       -1.2875680370
 H          4.2607524778       -2.7334413544        0.0978001351
 H          7.5512980441        0.7081501073        0.7031619468
 H          6.2889800236        0.6408004283       -0.5090818072
 H          5.9663499574        0.1402589227        2.2525530864
 H          5.8447698673       -1.4535523558        1.4935582874
 O          3.9680980101        1.1292432624        1.4465810212
 C          2.7467937469        1.6868084653        1.1154009755
 O          2.4868479368        2.7443917141        1.7222461514
 H         -0.6275572547       -0.5964053312       -0.8566809515
 C         -1.0284279715       -0.1909169158        0.0593938771
 C         -0.4947956525        0.9798295572        0.5784658230
 C         -0.9985504154        1.4667494974        1.7797768926
 C         -2.0084305427        0.7953771110        2.4461404485
 C         -2.5381746203       -0.3721045977        1.9265123048
 C         -2.0365972321       -0.8685127210        0.7301318845
 N         -2.5807594423       -2.0483196688        0.1910375552
 S         -4.2493896231       -2.1096703251        0.0675762266
 O         -4.8121045332       -2.5258117235        1.3284972956
 O         -4.5241402437       -2.9738592084       -1.0591272102
 C         -4.7439104744       -0.4312437813       -0.2868093671
 C         -5.5648234160        0.2445729376        0.5924612716
 C         -5.9002388524        1.5612309473        0.3196204027
 C         -5.4058932394        2.1775088232       -0.8190875127
 C         -4.5837455032        1.4840867642       -1.6941606887
 C         -4.2476495782        0.1670834899       -1.4283196017
 H         -3.6130837452       -0.3988312786       -2.0913624999
 H         -4.1996159248        1.9663118779       -2.5786060616
 H         -5.6616462143        3.2043509203       -1.0276969570
 H         -6.5405420980        2.1022983253        0.9975131653
 H         -5.9215160981       -0.2712193455        1.4690839867
 H         -2.1361773635       -2.3405968476       -0.6670588428
 H         -3.3238060813       -0.9112513224        2.4310714114
 H         -2.3879900100        1.1849477203        3.3783442034
 H         -0.5788587963        2.3721493528        2.1943546165
 C          0.6146932174        1.7153247817       -0.1342575045
 H          0.6853847794        2.7176265206        0.3078679717
 C          0.3470294961        1.8607395410       -1.6197438498
 C         -0.7732219387        2.7483001263       -2.0694999264
 C          0.6490723977        3.1625136130       -2.2959673015
 H          1.0402176016        3.1412868342       -3.3022917297
 H          1.0521586415        3.9603615121       -1.6892688947
 H         -1.3586675781        2.4428528971       -2.9228688146
 H         -1.3379620758        3.2630154460       -1.3071346209
 H          0.5324543254        0.9572411557       -2.1850038738
 O          1.6523898139       -0.8074812453       -1.2801976195
