  62
        -98.93507762
 C         -1.7062657107       -0.0777029818        0.3171709405
 C         -2.8095420640       -0.8135198546        0.8187307743
 C         -4.1329106449       -0.1763475342        0.7203538035
 C         -4.2277412511        1.0627068116        0.2095862961
 C         -5.4570522110        1.9218813123        0.0483460409
 C         -6.7375305884        1.2404503748       -0.4521206319
 C         -6.5144796996        0.0942241019       -1.4495823753
 H         -7.1400905220        0.2614260790       -2.3283994937
 H         -5.4764059534        0.0882602114       -1.7867870058
 C         -6.8720810236       -1.2775384312       -0.8723750458
 H         -7.8082370978       -1.1898935185       -0.3167230330
 H         -7.0462183119       -1.9713477560       -1.6983908912
 C         -5.8114948902       -1.9059961885        0.0308052329
 H         -4.9481789401       -2.2096683943       -0.5677636774
 H         -6.2348232559       -2.8153949717        0.4638716699
 C         -5.2972197360       -1.0112842083        1.1703513626
 H         -6.0960481806       -0.4001517303        1.5830511988
 H         -4.9122382027       -1.6622968663        1.9599805694
 H         -7.3076189561        0.8663398375        0.3970478953
 H         -7.3450371510        2.0171906227       -0.9197537242
 H         -5.6607331466        2.4059203784        1.0080732152
 H         -5.1632733177        2.7085674867       -0.6509646550
 O         -3.1350996726        1.7541508719       -0.2200689141
 C         -1.8548004095        1.2154602949       -0.1832192792
 O         -0.9758686526        1.9858854242       -0.6115243801
 H          1.8756197576        0.3914085117       -0.8311247596
 C          1.7580262994        0.6863780009        0.1973356202
 C          0.6812147806        0.2363493163        0.9432536712
 C          0.5379485573        0.6941227229        2.2511632730
 C          1.4421562506        1.5871051564        2.7907558230
 C          2.5251554544        2.0239981292        2.0471918132
 C          2.6775830560        1.5727554005        0.7427308697
 N          3.7661341651        1.9879275720       -0.0365848885
 S          4.4779643551        0.9191267890       -1.1009434199
 O          5.8397487867        1.3937115076       -1.2318034807
 O          3.7269545702        0.8367935133       -2.3279971235
 C          4.4597319195       -0.6603996364       -0.2682093516
 C          5.0139837921       -0.7483214186        0.9935829520
 C          4.9895247169       -1.9660497942        1.6534064144
 C          4.4170793671       -3.0715131793        1.0429815357
 C          3.8741652102       -2.9702208716       -0.2282186693
 C          3.8935207574       -1.7533408533       -0.8913443966
 H          3.4766986874       -1.6280684384       -1.8781253576
 H          3.4320340100       -3.8318841807       -0.7029890059
 H          4.3945421807       -4.0180241799        1.5595622039
 H          5.4136975900       -2.0492670988        2.6409615187
 H          5.4585261841        0.1262248354        1.4396092968
 H          4.4425374820        2.5664758163        0.4382455302
 H          3.2358438503        2.7195798425        2.4668367904
 H          1.3107271522        1.9410972114        3.8021292815
 H         -0.3047747459        0.3487407838        2.8344618361
 C         -0.3381808246       -0.7301445878        0.3983122428
 H         -0.4680956551       -1.5366646262        1.1395272423
 C          0.1121030192       -1.3987419873       -0.8915418163
 C         -0.8777920305       -1.9535515574       -1.8700796152
 C         -0.0587926974       -0.7526946173       -2.2324700102
 H          0.7322363050       -0.8611972280       -2.9610789450
 H         -0.5409468481        0.2121182505       -2.2652494505
 H         -1.9271921710       -1.8076660670       -1.6585928443
 H         -0.6556723729       -2.8948988255       -2.3496078885
 H          1.0195037398       -1.9771076577       -0.7453953887
 O         -2.6917419044       -1.9527445629        1.3422495459
