  62
        -98.93229589
 C         -2.4766732198       -0.8202090171        0.0553195244
 C         -2.9318833452        0.3042574475        0.7860446676
 C         -4.1052139646        1.0283916861        0.2626234777
 C         -4.6699301725        0.5952626617       -0.8796188876
 C         -5.8866672536        1.1364584377       -1.5817307955
 C         -7.1986268284        0.7299837705       -0.8903324651
 C         -7.1845008093        0.8375797486        0.6324378261
 H         -8.1201678480        0.4113208134        1.0040604600
 H         -6.3712539094        0.2259365920        1.0276492634
 C         -7.0668455650        2.2562750026        1.1843019006
 H         -7.9098763106        2.8509351134        0.8252167764
 H         -7.1477869223        2.1890031201        2.2723290044
 C         -5.7721360004        2.9992563610        0.8493765030
 H         -5.7823192127        3.3601865728       -0.1754662602
 H         -5.7309610071        3.8851774710        1.4899334880
 C         -4.4945098492        2.2098360496        1.1180887948
 H         -4.5110232244        1.8411421234        2.1501294604
 H         -3.6427378265        2.8994767467        1.0733414807
 H         -8.0061304016        1.3433592081       -1.2934963929
 H         -7.4057810908       -0.3117880906       -1.1469700672
 H         -5.8802444900        0.7152787496       -2.5894333210
 H         -5.8140342666        2.2160720974       -1.6738887913
 O         -4.1940773624       -0.4863603764       -1.5567001980
 C         -3.0980091138       -1.2184864709       -1.1286289283
 O         -2.8037178516       -2.1648799944       -1.8804332276
 O         -2.3837825685        0.6877505057        1.8560428802
 C         -1.2811746715       -1.5614099730        0.6253201387
 C          0.0098050021       -1.0290462102        0.0579541229
 C          0.2129394448       -0.9326440406       -1.3152122186
 C          1.4121991378       -0.4564460116       -1.8129667958
 C          2.4271333658       -0.0621009142       -0.9582897107
 C          2.2334780303       -0.1488501850        0.4134076678
 C          1.0295239056       -0.6325734048        0.9105848996
 H          0.8781607680       -0.6887901701        1.9804295106
 N          3.2537679499        0.2663050399        1.2846305679
 S          4.8048615858       -0.3299507393        1.0421341441
 O          4.7735016770       -1.6341493912        0.4225120709
 O          5.4459686402       -0.2461348204        2.3359029441
 C          5.5558143273        0.8530536586       -0.0557752032
 C          6.0982797065        0.4314369708       -1.2538522305
 C          6.6878883733        1.3678910022       -2.0888270178
 C          6.7249130947        2.7017319410       -1.7123706491
 C          6.1779306144        3.1083826023       -0.5043094244
 C          5.5883569574        2.1772051940        0.3355399393
 H          5.1566950218        2.4519236755        1.2835173731
 H          6.2090329811        4.1465290806       -0.2150818480
 H          7.1832087411        3.4287279202       -2.3641445953
 H          7.1143596775        1.0536404963       -3.0279017026
 H          6.0422181655       -0.6152859681       -1.5075204603
 H          2.9999392399        0.2272372356        2.2612313062
 H          3.3615990062        0.3109737430       -1.3442538300
 H          1.5581576549       -0.3897887153       -2.8805031540
 H         -0.5765423307       -1.2409525968       -1.9840563707
 H         -1.2915260942       -1.3160139527        1.6995818624
 C         -1.4001107194       -3.0749037869        0.5109793818
 C         -0.5535183128       -3.9157781700       -0.3914522729
 C         -0.3323152122       -3.9566343773        1.0890052855
 H         -0.6269567953       -4.8389613271        1.6366720003
 H          0.5573961809       -3.4767823434        1.4702330056
 H         -1.0246040495       -4.7586815680       -0.8733324157
 H          0.1893502176       -3.4278022264       -1.0021478921
 H         -2.4248625071       -3.4068490073        0.6448336064
