  62
        -98.94378978
 C         -1.8990371083       -1.0503445763        0.0562918244
 C         -1.2865526686       -1.8612349917       -0.9293863824
 C         -0.2020742605       -2.7457177162       -0.4703402605
 C          0.1181974032       -2.7738060411        0.8346357862
 C          1.1430597274       -3.6322997322        1.5328061392
 C          2.5130290108       -3.7946996510        0.8605127094
 C          2.9980299079       -2.5753819832        0.0626844006
 H          2.3765267781       -1.7046977382        0.2789600163
 H          4.0156218191       -2.3289113203        0.3719867436
 C          3.0136512424       -2.8171388770       -1.4483119997
 H          3.6794660202       -2.0851614067       -1.9127362248
 H          3.4264595223       -3.8100968949       -1.6429167350
 C          1.6603552516       -2.6887756019       -2.1473850907
 H          1.7926372946       -2.9897174145       -3.1901421627
 H          1.3559584776       -1.6379134833       -2.1597047365
 C          0.5155590567       -3.5171041550       -1.5390904400
 H          0.8766050522       -4.4754748037       -1.1721443863
 H         -0.2207742276       -3.7005022751       -2.3266715126
 H          2.4957565353       -4.6621512760        0.2021003424
 H          3.2286865596       -4.0162414183        1.6537398662
 H          1.2724256929       -3.1776836481        2.5174927584
 H          0.7042871951       -4.6219764824        1.6898674658
 O         -0.5228049402       -2.0010800553        1.7559769718
 C         -1.5092720944       -1.0943975723        1.3934132619
 O         -1.9447829772       -0.4126718262        2.3395090637
 O         -1.6381966451       -1.8539190466       -2.1397787928
 C         -2.9506945649       -0.0396901743       -0.3706812223
 C         -2.3809987607        1.3430216936       -0.1617808436
 C         -2.9449731959        2.2996399028        0.6710044127
 C         -2.3196930090        3.5218420147        0.8510139093
 C         -1.1225269407        3.8079803034        0.2213677203
 C         -0.5542015754        2.8612246663       -0.6252083875
 C         -1.1970976210        1.6500446973       -0.8235116886
 H         -0.7592664791        0.9232364752       -1.4927492436
 N          0.6532840801        3.1298420146       -1.2935576602
 S          1.8834637084        2.0009796455       -1.3639934835
 O          2.9947184964        2.7210860919       -1.9459637283
 O          1.4432584896        0.8267571462       -2.0696905170
 C          2.2608676688        1.6048234252        0.3319625460
 C          1.4479269670        0.7197205419        1.0104174262
 C          1.7111387237        0.4516202613        2.3443736397
 C          2.7849339143        1.0636572439        2.9719335715
 C          3.5971284297        1.9465245968        2.2757323181
 C          3.3307417184        2.2269376797        0.9454382133
 H          3.9354861384        2.9043119986        0.3645001832
 H          4.4330294890        2.4182701764        2.7666605083
 H          2.9871440797        0.8485452662        4.0092673853
 H          1.0658119407       -0.2289249996        2.8782000571
 H          0.6210657985        0.2539103970        0.4960945489
 H          1.0347015450        4.0459821768       -1.1057702404
 H         -0.6304774432        4.7559994031        0.3770765881
 H         -2.7653849017        4.2572201134        1.5033755026
 H         -3.8662786513        2.0859430105        1.1866635525
 H         -3.0824319999       -0.1952933613       -1.4515543968
 C         -4.2726947986       -0.2787053622        0.3241404895
 C         -5.5404701726        0.2292501207       -0.2929442163
 C         -5.2484359293       -1.2403476189       -0.2823461752
 H         -5.8207182081       -1.8769522890        0.3755721946
 H         -4.9674577249       -1.7145839692       -1.2115856833
 H         -6.3181552792        0.6012298760        0.3565640671
 H         -5.4620409966        0.7543335273       -1.2329799012
 H         -4.1884844017       -0.2703379431        1.4044748108
