  62
        -98.94286611
 C         -2.3117672401       -0.6280041326       -0.0956113142
 C         -1.2856067163       -0.8637887098        0.8452209051
 C         -0.4364003600       -2.0457600823        0.6206525061
 C         -0.6750653880       -2.8261071431       -0.4482176127
 C          0.1062820599       -4.0085538075       -0.9654365617
 C          0.7299972778       -4.9800518387        0.0459728204
 C          2.2454909272       -4.8231764283        0.1964695472
 H          2.6624279425       -5.7785643538        0.5234832966
 H          2.6682623253       -4.6017750982       -0.7859781426
 C          2.7058034512       -3.7577457066        1.1894301098
 H          2.4855051256       -4.0910377857        2.2058743816
 H          3.7912612989       -3.6719795266        1.1008961693
 C          2.0886995831       -2.3726214115        0.9931914232
 H          2.7392582698       -1.6396128035        1.4766564951
 H          2.0525639333       -2.1078580913       -0.0654740692
 C          0.6838733231       -2.2430218116        1.6036867249
 H          0.4672422121       -3.1077753025        2.2351474578
 H          0.6454885161       -1.3650899928        2.2545956718
 H          0.5374414387       -5.9911165490       -0.3175033555
 H          0.2352536183       -4.8855346564        1.0104157286
 H         -0.5950329365       -4.5475343802       -1.6079976307
 H          0.8836302058       -3.6105012118       -1.6258274704
 O         -1.7119209349       -2.5895019077       -1.3035063637
 C         -2.5219283276       -1.4766597451       -1.1787127231
 O         -3.3833013702       -1.3572620992       -2.0757289106
 H         -0.9910606583        0.8977848777       -1.6012817219
 C         -1.0852734020        1.7513120085       -0.9457634768
 C         -2.1499192826        1.8223664758       -0.0557575684
 C         -2.2568002081        2.9426916078        0.7581410226
 C         -1.2991373736        3.9416580690        0.7030904422
 C         -0.2066309342        3.8340052042       -0.1383114966
 C         -0.0986480906        2.7226445398       -0.9668905889
 N          1.0002546507        2.5488612909       -1.8326026898
 S          1.9592875710        1.1863615736       -1.6482589797
 O          2.9909144212        1.3241686661       -2.6545992953
 O          1.1564334174       -0.0070085270       -1.7215862493
 C          2.6981702219        1.3614972743       -0.0333092918
 C          4.0316313385        1.7143371435        0.0501873800
 C          4.6033573996        1.8930463231        1.2993003529
 C          3.8324092847        1.7266741119        2.4400901816
 C          2.4942824221        1.3796947891        2.3382759354
 C          1.9159219383        1.1938226081        1.0916015252
 H          0.8790682079        0.9135400078        0.9953125231
 H          1.8860340307        1.2477419541        3.2190253068
 H          4.2752962832        1.8667012636        3.4135580937
 H          5.6444705934        2.1615155006        1.3788781975
 H          4.5902115705        1.8319085352       -0.8643149616
 H          1.5969591958        3.3618137893       -1.9033883390
 H          0.5564864951        4.5974496838       -0.1551534468
 H         -1.3932947470        4.8057178480        1.3429250757
 H         -3.0841571218        3.0287289062        1.4434844369
 C         -3.1141810907        0.6589742491       -0.0194617554
 H         -3.7328173017        0.6887879058       -0.9286160548
 C         -4.0205497885        0.6632836509        1.1933536485
 C         -5.3204840325        1.4081611964        1.1635500780
 C         -5.3140283079       -0.0898157615        1.1293533958
 H         -5.6406684419       -0.6297580029        2.0052838192
 H         -5.5516703781       -0.5845346599        0.1984760394
 H         -5.6568135021        1.8956067979        2.0661720598
 H         -5.5766451387        1.9325530123        0.2552934894
 H         -3.4672162891        0.6300012337        2.1245291230
 O         -1.0638196545       -0.0970582990        1.8210800382
