  62
        -98.93313121
 C         -2.0530504872       -0.9338986801        0.6513542254
 C         -1.9617835259       -0.1880590738       -0.5472639180
 C         -2.1480065917        1.2737879449       -0.4402169210
 C         -2.3598711036        1.8176240277        0.7713825370
 C         -2.6099738242        3.2617812795        1.1161678660
 C         -4.0296881280        3.7248687507        0.7490946841
 C         -4.5263279201        3.2606241667       -0.6176660766
 H         -4.4876890349        2.1706900611       -0.6609383241
 H         -5.5760630846        3.5525640611       -0.7057966457
 C         -3.7769144584        3.8421418501       -1.8137554388
 H         -4.2850743074        3.4931843276       -2.7161240457
 H         -3.8530679384        4.9314228059       -1.7887716542
 C         -2.2990454770        3.4618072066       -1.9245305340
 H         -1.6920247825        4.0328737295       -1.2271080356
 H         -1.9644946399        3.7416268916       -2.9278373713
 C         -2.0090360476        1.9719463117       -1.7713931566
 H         -2.6320811807        1.4095612144       -2.4764093073
 H         -0.9739020140        1.7836304260       -2.0831598840
 H         -4.7160792075        3.3321049496        1.5032309920
 H         -4.0600605045        4.8144810497        0.7999647373
 H         -2.4821386889        3.3510528417        2.1974928122
 H         -1.8588596474        3.8886659014        0.6443831019
 O         -2.4166478505        1.0617113824        1.9067751290
 C         -2.2338956844       -0.3058423237        1.8833482875
 O         -2.2557890392       -0.8472477761        3.0097069856
 H          0.5071970685       -1.1360150697        0.8077730622
 C          0.5616110904       -1.9413714946        0.0878996568
 C         -0.5551187943       -2.7426938927       -0.1233646214
 C         -0.4586600002       -3.7841343177       -1.0351948614
 C          0.7244808842       -4.0031502219       -1.7219099614
 C          1.8203655725       -3.1838447604       -1.5328399464
 C          1.7287882627       -2.1283803560       -0.6291458284
 N          2.8018825182       -1.2337689359       -0.4770342157
 S          2.7549381092        0.0438913676        0.6040722162
 O          2.7560522156       -0.4301757063        1.9733660518
 O          1.6842490548        0.9348587680        0.2330662183
 C          4.3252176000        0.7994818211        0.2273933306
 C          5.4052256207        0.5985074607        1.0653678018
 C          6.6233031554        1.1750462724        0.7398423013
 C          6.7404031689        1.9364497900       -0.4130235135
 C          5.6468936215        2.1305872423       -1.2442791724
 C          4.4266026505        1.5578686806       -0.9237231357
 H          3.5466770092        1.6869791258       -1.5326460110
 H          5.7402924694        2.7253650491       -2.1385519868
 H          7.6889050553        2.3840519420       -0.6644158811
 H          7.4738211883        1.0287945797        1.3859243831
 H          5.2637058948        0.0056180096        1.9546648760
 H          3.7169607418       -1.6480099781       -0.5726094566
 H          2.7335374832       -3.3425790123       -2.0846837422
 H          0.7875417217       -4.8193584903       -2.4256016620
 H         -1.3110121034       -4.4160728630       -1.2229105319
 C         -1.7946859336       -2.4307175320        0.6817122722
 H         -1.5638858075       -2.6511259797        1.7387381591
 C         -2.9951874030       -3.2902502639        0.3119621804
 C         -4.3894190673       -2.7425777652        0.3703483520
 C         -3.7687205994       -3.0713704228       -0.9522862734
 H         -4.1334917974       -3.9365487991       -1.4864174714
 H         -3.4516092433       -2.2608160909       -1.5887070954
 H         -5.1738667303       -3.3813254357        0.7481657549
 H         -4.5069444678       -1.7020398133        0.6375911561
 H         -2.8751977731       -4.3184708561        0.6392576086
 O         -1.7413939836       -0.7040354655       -1.6742674283
