  62
        -98.94175067
 C         -1.7065794192       -0.4776944296       -0.2896121079
 C         -2.8231644703       -1.2925373913        0.0324347337
 C         -4.1414392958       -0.7585752812       -0.3251511022
 C         -4.2331359268        0.4458357282       -0.9167175031
 C         -5.5019981955        1.1164159722       -1.3689068641
 C         -6.2338686308        1.8821269708       -0.2581617261
 C         -6.9330794679        1.0071402895        0.7830516166
 H         -7.5812602080        1.6623599468        1.3684035985
 H         -7.5734426269        0.2839935158        0.2769615019
 C         -5.9795009660        0.2749567121        1.7376057340
 H         -4.9922215550        0.7407492933        1.6932784867
 H         -6.3379825168        0.3827611321        2.7638051614
 C         -5.8337360279       -1.2219020222        1.4634794969
 H         -6.7905543705       -1.7204044385        1.6335388802
 H         -5.1098189634       -1.6314805081        2.1724069135
 C         -5.3519060252       -1.5607633606        0.0467569274
 H         -5.0716675403       -2.6167111118        0.0236537555
 H         -6.1533571876       -1.3954583044       -0.6730466203
 H         -5.5193852005        2.5418654331        0.2397409751
 H         -6.9872467572        2.5108865210       -0.7384185289
 H         -5.2169491073        1.8278621177       -2.1470890551
 H         -6.1728202398        0.3752572080       -1.8045536280
 O         -3.1422459743        1.2067518962       -1.1928863050
 C         -1.8565226057        0.7837183436       -0.8682225333
 O         -0.9743228350        1.6161205009       -1.1475881370
 H          1.9050426601        0.3644749620       -0.7944853561
 C          1.6025295529        0.6283542117        0.2042847406
 C          0.4792067329        0.0528414158        0.7752429762
 C          0.0842166523        0.4734933084        2.0429545743
 C          0.7916546457        1.4501706580        2.7157175487
 C          1.9223929838        2.0124216259        2.1489137513
 C          2.3231196292        1.6016715193        0.8837574404
 N          3.4627013872        2.1511711379        0.2831178388
 S          4.4214228248        1.2289433266       -0.7200919694
 O          5.7239309868        1.8576973888       -0.6455571753
 O          3.8503160832        1.1345098496       -2.0397114727
 C          4.4869393106       -0.3890461772        0.0320891912
 C          4.8674616323       -0.4897039976        1.3557368368
 C          4.9153479385       -1.7418907948        1.9463024566
 C          4.5877579456       -2.8680803288        1.2068239222
 C          4.2170850313       -2.7520529772       -0.1236568308
 C          4.1643433062       -1.5011297972       -0.7180568796
 H          3.8742692129       -1.3643438445       -1.7477633670
 H          3.9649097686       -3.6289146679       -0.6988392801
 H          4.6222660053       -3.8421161504        1.6687040644
 H          5.2057407669       -1.8360851732        2.9801955989
 H          5.1240460350        0.4024126409        1.9031020092
 H          3.9968756427        2.7851892265        0.8574531750
 H          2.4795058949        2.7739769403        2.6729262123
 H          0.4675527278        1.7725221732        3.6937542169
 H         -0.7965470563        0.0309929962        2.4881651001
 C         -0.3314019057       -1.0073362606        0.0760379396
 H         -0.5370476034       -1.8103567213        0.8036533941
 C          0.4188669295       -1.6547358783       -1.0778647870
 C         -0.3098472291       -2.3677512153       -2.1759761745
 C          0.4124801057       -1.0873049960       -2.4642299232
 H          1.3269199498       -1.1226565853       -3.0393015890
 H         -0.1664927693       -0.1936753030       -2.6387087225
 H         -1.3897946454       -2.3489154631       -2.1550020532
 H          0.1041993251       -3.2902507755       -2.5538989883
 H          1.3487191511       -2.1060313941       -0.7441626234
 O         -2.7209978611       -2.4146965691        0.5946851077
