  62
        -98.94469051
 C         -1.8048229361       -0.5635399488       -0.4683246226
 C         -2.8669387366       -1.3128955435        0.0927604373
 C         -4.2190444216       -0.8322434597       -0.2112323230
 C         -4.3820306473        0.2456175131       -1.0000440047
 C         -5.6977656176        0.8388746267       -1.4259905060
 C         -6.3073035170        1.8073602320       -0.4031156521
 C         -6.8801667243        1.1502435403        0.8532566672
 H         -7.4621552474        1.9119347345        1.3759523197
 H         -7.5691410650        0.3560324407        0.5641485601
 C         -5.8211601447        0.5919525492        1.8141141987
 H         -4.8476789653        1.0259358060        1.5740289504
 H         -6.0620822005        0.8928236530        2.8362043075
 C         -5.6999040620       -0.9319688411        1.8067630390
 H         -6.6296025056       -1.3750027839        2.1704772109
 H         -4.8999565929       -1.2156628339        2.4953328543
 C         -5.3773818884       -1.5332169507        0.4323123900
 H         -5.0960356278       -2.5796400535        0.5729340494
 H         -6.2548390440       -1.4902707477       -0.2124074748
 H         -5.5466689201        2.5381044298       -0.1184627110
 H         -7.1139151018        2.3462876983       -0.9055910266
 H         -5.5048147280        1.3899927255       -2.3489745683
 H         -6.4079189461        0.0397517663       -1.6405899234
 O         -3.3346203816        0.9289101406       -1.5340954102
 C         -2.0234698706        0.5597717962       -1.2655965626
 O         -1.1674841667        1.2960040304       -1.7920155852
 O         -2.6924103266       -2.3318843508        0.8129075826
 C         -0.3762695235       -0.9952241818       -0.1855715762
 C          0.3606203378        0.1166244156        0.5169021707
 C         -0.1781285850        0.6212509851        1.6991872891
 C          0.4360196363        1.6589334421        2.3706848258
 C          1.6097050684        2.2089253915        1.8847157692
 C          2.1601063501        1.7084817364        0.7114039490
 C          1.5412810209        0.6614379673        0.0386274599
 H          1.9786591363        0.3077085139       -0.8796369525
 N          3.3439283215        2.2534209184        0.2005115394
 S          4.4271643870        1.3422787913       -0.6729718729
 O          5.6750432615        2.0679596064       -0.5571474247
 O          3.9545751562        1.1264710402       -2.0174081738
 C          4.5627569385       -0.2218283700        0.1776723043
 C          4.6296128114       -1.3791779868       -0.5702267452
 C          4.7574787283       -2.5962801425        0.0799224658
 C          4.8155865377       -2.6344898118        1.4640131107
 C          4.7535580072       -1.4627400145        2.2024755120
 C          4.6295811555       -0.2431670573        1.5568059520
 H          4.5837332594        0.6801578234        2.1103691746
 H          4.8002671839       -1.4954691038        3.2790481704
 H          4.9102580116       -3.5824235183        1.9697669744
 H          4.8069875575       -3.5073859546       -0.4945787738
 H          4.5740931950       -1.3023310483       -1.6441545540
 H          3.7931987043        2.9477567321        0.7776755347
 H          2.0882714022        3.0267622216        2.4014095610
 H          0.0017222224        2.0437078511        3.2810439094
 H         -1.0958539260        0.1912114066        2.0765707883
 H         -0.4628641734       -1.8425634086        0.5106956063
 C          0.2922284751       -1.4774207436       -1.4542750567
 C          1.4044812036       -2.4787356063       -1.3843345854
 C          0.0586846277       -2.8889602976       -1.8999017432
 H         -0.0542153068       -3.0843398350       -2.9557667649
 H         -0.5644307842       -3.5089368606       -1.2720641442
 H          2.2164723611       -2.3892486308       -2.0895049486
 H          1.7043233320       -2.8255410992       -0.4071128734
 H          0.3399950519       -0.7125478090       -2.2219201215
