  62
        -98.93966121
 C         -1.0215112391       -1.4133758759        0.4711117480
 C         -1.9580712968       -1.1317606695       -0.5487862632
 C         -3.0331463616       -0.1781317607       -0.2122569497
 C         -3.0633493099        0.3694568097        1.0158930876
 C         -4.0296697337        1.3796984562        1.5820819680
 C         -5.5177497471        1.1889011873        1.2528026100
 C         -6.0627372440        2.2278375793        0.2710146517
 H         -7.1414216363        2.3160309020        0.4186158303
 H         -5.6203695120        3.1970498735        0.5111387220
 C         -5.8228961442        1.9170285199       -1.2052692982
 H         -6.4645956511        1.0871953572       -1.5091604882
 H         -6.1288534011        2.7933877731       -1.7814469076
 C         -4.3794425236        1.5687057049       -1.5738143047
 H         -3.6801971548        2.2204085283       -1.0492432398
 H         -4.2502645635        1.7616120905       -2.6411507323
 C         -4.0176211954        0.0980526170       -1.3153300713
 H         -4.9259348806       -0.4845157716       -1.1374709390
 H         -3.5536215275       -0.3282703606       -2.2103469407
 H         -5.6882103628        0.1822655723        0.8750092884
 H         -6.0767974689        1.2836660059        2.1851608018
 H         -3.8812775004        1.3355283008        2.6638121279
 H         -3.7017115948        2.3743482194        1.2670544166
 O         -2.1263623891        0.0801971372        1.9641210072
 C         -1.0778078735       -0.7840799750        1.7124740934
 O         -0.2731422481       -0.9101185337        2.6591854107
 H          0.6561403907        0.2400475796       -0.2535134246
 C          1.2033907654       -0.3908421301       -0.9361099823
 C          1.0352704588       -1.7669436103       -0.8816983219
 C          1.7263652493       -2.5530536934       -1.7958167333
 C          2.5500156292       -1.9649422461       -2.7403550709
 C          2.7211468541       -0.5928175564       -2.7832102009
 C          2.0368189444        0.2014733632       -1.8703672967
 N          2.1699743112        1.5978843963       -1.8725061654
 S          2.1276361344        2.4432393003       -0.4313741826
 O          0.7830495558        2.4990772475        0.0867876496
 O          2.7298528931        3.7193513906       -0.7553147462
 C          3.2078572290        1.5342637920        0.6591880870
 C          2.7038463649        0.7674268674        1.6890253253
 C          3.5852414756        0.0367110981        2.4715211904
 C          4.9460448981        0.0855761257        2.2154861119
 C          5.4386039272        0.8691249090        1.1822482177
 C          4.5633856753        1.5973128553        0.3946532452
 H          4.9067585251        2.2274856736       -0.4095990771
 H          6.4981734981        0.9113408832        0.9883145040
 H          5.6249349203       -0.4875493543        2.8269294043
 H          3.1900420287       -0.5684978098        3.2720246560
 H          1.6415050690        0.7379990550        1.8759975756
 H          2.8640914916        1.9629129787       -2.5074887749
 H          3.3660306697       -0.1384070593       -3.5193574845
 H          3.0736717203       -2.5860755011       -3.4509237542
 H          1.6137558609       -3.6246292362       -1.7732441117
 C          0.1479382982       -2.3398907080        0.1991802621
 H          0.7357800192       -2.3636145857        1.1298225131
 C         -0.3372598015       -3.7425796336       -0.1053352433
 C          0.4728955155       -4.9326615016        0.3104030575
 C         -0.8016050132       -4.6067784849        1.0273711853
 H         -1.6613566903       -5.2413215349        0.8734161333
 H         -0.7388897201       -4.1924117038        2.0234535450
 H          0.4868547637       -5.7975332142       -0.3356569324
 H          1.4025758600       -4.7507052220        0.8281005473
 H         -0.8912419429       -3.7964405342       -1.0350559641
 O         -1.8994688509       -1.6441302574       -1.6979134588
