  62
        -98.94739970
 C          2.5314949452        0.2297868117        0.0018042194
 C          2.2630451119        1.2613966542       -0.9276982552
 C          1.6863281555        2.4902565195       -0.3729196530
 C          1.4540870007        2.5792480640        0.9495151943
 C          0.8929630825        3.7740193394        1.6725305525
 C         -0.6395481970        3.8481624834        1.6469810256
 C         -1.2420026797        4.2715205495        0.3069450495
 H         -2.2893317303        4.5205797522        0.4884393474
 H         -0.7462059267        5.1762518581       -0.0472191683
 C         -1.1770829196        3.1864235836       -0.7761724062
 H         -1.0060416700        2.2123145678       -0.3114057025
 H         -2.1409429346        3.1168423962       -1.2871220596
 C         -0.1174741963        3.4131406576       -1.8547894658
 H         -0.1321058286        2.5448105676       -2.5193850824
 H         -0.3766539429        4.2961757759       -2.4444251348
 C          1.3116745729        3.5863891547       -1.3245841146
 H          1.4181448018        4.5593497876       -0.8444330135
 H          1.9984350110        3.5362176205       -2.1736352831
 H         -1.0382906405        2.8699435514        1.9274177733
 H         -0.9458844250        4.5701043068        2.4077701556
 H          1.3119700106        4.6888403642        1.2519311373
 H          1.2174542160        3.6862295945        2.7116664266
 O          1.7404037382        1.5701922089        1.8135048918
 C          2.2379031135        0.3596855470        1.3592793918
 O          2.3977572339       -0.4961798564        2.2517856676
 O          2.5011266519        1.1609514493       -2.1632814317
 C          3.0380810139       -1.1108997033       -0.5022811778
 C          2.0047130128       -2.1614470203       -0.1750280320
 C          2.2936089346       -3.3828853932        0.4178303120
 C          1.2698304346       -4.2514202756        0.7579983221
 C         -0.0525910786       -3.9158633159        0.5350939766
 C         -0.3494889685       -2.7046522989       -0.0814219192
 C          0.6786124222       -1.8586363279       -0.4570677445
 H          0.4392330395       -0.9216502861       -0.9392775649
 N         -1.6783183158       -2.3232128297       -0.3399895451
 S         -2.0269675515       -0.6684839337       -0.3321639751
 O         -1.7138401159       -0.1357117900       -1.6341505737
 O         -1.4087294125       -0.0243663139        0.8048835084
 C         -3.7974075916       -0.7155751828       -0.1249178068
 C         -4.3397140730       -0.5278391979        1.1320565140
 C         -5.7157932305       -0.5948183288        1.2858795291
 C         -6.5211977278       -0.8506236847        0.1863633691
 C         -5.9624473192       -1.0358128382       -1.0696890092
 C         -4.5876898361       -0.9682045571       -1.2304597851
 H         -4.1076180367       -1.0942418519       -2.1867926055
 H         -6.5918520336       -1.2311991746       -1.9227565382
 H         -7.5914408618       -0.9028249226        0.3088384587
 H         -6.1523178561       -0.4472517966        2.2605078292
 H         -3.6734875488       -0.3239638616        1.9552674822
 H         -2.3513294871       -2.8541713164        0.1957987239
 H         -0.8491048595       -4.5796989066        0.8349447047
 H          1.5057053711       -5.1945904460        1.2272683851
 H          3.3163348103       -3.6469724550        0.6317453120
 H          3.1015026039       -1.0101623953       -1.5964251042
 C          4.4151452902       -1.4172957617        0.0452808211
 C          5.3594924152       -2.2863239451       -0.7290559055
 C          5.6119387004       -0.8132193931       -0.6239211249
 H          6.4282320401       -0.4697854974       -0.0065665114
 H          5.4333642946       -0.1977795662       -1.4936513551
 H          6.0079916486       -2.9556686043       -0.1843709176
 H          5.0174379645       -2.6743907156       -1.6765107061
 H          4.4250641110       -1.4814455545        1.1275230393
