  62
        -98.94352282
 C         -1.8106691293       -0.5389102602        0.3339410320
 C         -2.9590498137       -0.6258623558        1.1556749724
 C         -4.2426703439       -0.7553960145        0.4535865349
 C         -4.2545905494       -0.7965070617       -0.8916061939
 C         -5.4943319785       -0.8685815497       -1.7344454538
 C         -5.9958183706        0.5342467950       -2.1049875052
 C         -6.0996192722        1.4875881928       -0.9144814635
 H         -5.0972091045        1.6844933059       -0.5272998787
 H         -6.4902529384        2.4359474717       -1.2898447238
 C         -6.9931586818        0.9826929755        0.2271045781
 H         -7.6352373439        1.8018045978        0.5579079246
 H         -7.6447000322        0.1873005183       -0.1364747747
 C         -6.2312325239        0.4892806329        1.4585388295
 H         -6.9485366826        0.3622907842        2.2738148318
 H         -5.5113332866        1.2492578249        1.7731901784
 C         -5.4861194992       -0.8413422645        1.2933999049
 H         -5.1553681507       -1.1615103122        2.2858635918
 H         -6.1672678772       -1.5976057852        0.8981533758
 H         -6.9730173053        0.4370926830       -2.5814608813
 H         -5.3046717761        0.9682083860       -2.8312004775
 H         -6.2662779703       -1.4100317965       -1.1911166400
 H         -5.2566239044       -1.4130080036       -2.6497675619
 O         -3.1286685672       -0.7275619367       -1.6465741768
 C         -1.8798501103       -0.5877302858       -1.0585267675
 O         -0.9347547775       -0.5228818383       -1.8660714728
 O         -2.9128218227       -0.5915481683        2.4155055811
 C         -0.4492793583       -0.3918402462        0.9868305417
 C          0.2370945064        0.8663347838        0.5157886354
 C         -0.4959305802        2.0471436812        0.4245127980
 C          0.0977454271        3.2176124085       -0.0041387518
 C          1.4420196363        3.2422993447       -0.3321677476
 C          2.1875689107        2.0752991150       -0.2291162027
 C          1.5838232196        0.8967580370        0.1894480961
 H          2.1807201369        0.0032344928        0.2626947995
 N          3.5488976251        2.0637056877       -0.5641720957
 S          4.6330441749        1.1811865416        0.3529054061
 O          4.2500567389        1.1453839357        1.7449376728
 O          5.9206325862        1.7784485372        0.0668290510
 C          4.5997809438       -0.4591983542       -0.3378778937
 C          4.7665521925       -1.5392889034        0.5061165035
 C          4.7915337743       -2.8158446892       -0.0337566077
 C          4.6497948011       -2.9887560430       -1.4017833757
 C          4.4849010542       -1.8932456063       -2.2357497088
 C          4.4639586454       -0.6141625291       -1.7030804700
 H          4.3335452666        0.2571493831       -2.3228382639
 H          4.3710341096       -2.0316352752       -3.2989259038
 H          4.6661869733       -3.9829119349       -1.8199871968
 H          4.9195968409       -3.6689972379        0.6136618254
 H          4.8609763282       -1.3597279257        1.5653575570
 H          3.9296463577        2.9576258660       -0.8379912860
 H          1.9088361927        4.1564553375       -0.6664436748
 H         -0.4877617908        4.1218676109       -0.0779083904
 H         -1.5445597244        2.0326104788        0.6894003687
 H         -0.6502889349       -0.2848532938        2.0639339415
 C          0.3711604810       -1.6463198653        0.7694403067
 C          1.3837780334       -2.0785685461        1.7859944206
 C          0.1034077676       -2.8415426106        1.6325089855
 H          0.1373170395       -3.8216159705        1.1813476960
 H         -0.6512767740       -2.7389249211        2.3986601224
 H          2.2968447737       -2.5359565959        1.4361979563
 H          1.5096690260       -1.4600615701        2.6621636308
 H          0.5894475570       -1.8224592866       -0.2781310644
