  62
        -98.93452974
 C         -2.3007706003       -0.9332083697        0.1903238107
 C         -3.0884277002       -0.1821455195        1.0981237006
 C         -4.0078035500        0.8246562706        0.5349092005
 C         -4.0483945699        0.9820548606       -0.8008509395
 C         -4.9225263397        1.9045813207       -1.6081735896
 C         -6.3724247598        1.4055373110       -1.7146634297
 C         -6.9721378900        0.8904770411       -0.4089423197
 H         -7.9555963900        0.4718821513       -0.6384822697
 H         -6.3544945001        0.0751046110       -0.0280170896
 C         -7.1553358798        1.9417694912        0.6830529703
 H         -7.7994822397        2.7399711913        0.3075192302
 H         -7.6760845800        1.4582824214        1.5135345003
 C         -5.8713270997        2.5690924010        1.2302885803
 H         -6.1343895597        3.0960604011        2.1520679803
 H         -5.4783016996        3.3186040709        0.5486174803
 C         -4.7801017799        1.5684594908        1.5975598604
 H         -5.2021414801        0.8017420809        2.2571517304
 H         -4.0239356799        2.0825030807        2.2030750904
 H         -6.3951429899        0.5860826109       -2.4373846096
 H         -6.9882064396        2.2170484811       -2.1060862497
 H         -4.8879161395        2.9082425507       -1.1948603496
 H         -4.4939612596        1.9432650606       -2.6121941896
 O         -3.2702963900        0.2408284604       -1.6389408894
 C         -2.3802737902       -0.7189560197       -1.1852720994
 O         -1.7435520103       -1.2786852999       -2.0990186893
 O         -3.0360284903       -0.3523019095        2.3460117306
 C         -1.3702907405       -1.9697852898        0.7939177207
 C          0.0146322395       -1.4129319301        1.0056791208
 C          0.6702081095       -1.5682639301        2.2212013008
 C          1.9483841295       -1.0682416404        2.4000890609
 C          2.5958032597       -0.4018041605        1.3752823609
 C          1.9501109198       -0.2419937005        0.1559549109
 C          0.6697932197       -0.7471151402       -0.0209901892
 H          0.1768609698       -0.6313141702       -0.9755185192
 N          2.5898592200        0.4469601094       -0.8891888491
 S          4.1531996999       -0.0119182709       -1.2969388390
 O          4.3241702501        0.3970196490       -2.6735859290
 O          4.3861749397       -1.4078758310       -1.0065732790
 C          5.1787157301        1.0084872489       -0.2587339090
 C          4.9972589603        2.3766992989       -0.3103177091
 C          5.7919653804        3.1873371188        0.4842913809
 C          6.7515162003        2.6196389687        1.3095370410
 C          6.9240327800        1.2445280687        1.3468609311
 C          6.1312398699        0.4277029288        0.5555241910
 H          6.2252443597       -0.6465473812        0.5559205411
 H          7.6708354499        0.8054284786        1.9886099411
 H          7.3684479804        3.2530877386        1.9270989410
 H          5.6602875406        4.2570836689        0.4580654209
 H          4.2426900804        2.7772871691       -0.9666648592
 H          2.0183077100        0.5333829794       -1.7176749992
 H          3.5902504698       -0.0089329107        1.5094317209
 H          2.4457368795       -1.1955860504        3.3493257009
 H          0.1669732893       -2.0758271700        3.0309893008
 H         -1.7952798106       -2.1781962397        1.7885478207
 C         -1.3622338907       -3.2825987099        0.0215113508
 C         -0.1967689708       -3.7712591701       -0.7802081291
 C         -0.5460459610       -4.4413396700        0.5128323809
 H         -0.9793947912       -5.4295100699        0.4856045909
 H          0.1085992390       -4.2664782901        1.3532388509
 H         -0.4080357908       -4.2808922001       -1.7081139091
 H          0.6959519293       -3.1658175503       -0.8176190491
 H         -2.3436744208       -3.5171999997       -0.3790124992
