  62
        -98.93779791
 C         -1.3880851992       -1.4864310990        0.0618830458
 C         -2.5444098307       -1.0700477457        0.7618864083
 C         -3.2328984709        0.1342915118        0.2644671442
 C         -2.6936045779        0.8136690247       -0.7634080896
 C         -3.2009559793        2.0604470214       -1.4433594390
 C         -3.7138087786        3.1834279921       -0.5290052080
 C         -5.2312478110        3.3708862777       -0.5858425523
 H         -5.4670022305        4.3943298929       -0.2859383966
 H         -5.5560498410        3.2513998703       -1.6215321970
 C         -6.0382236655        2.4306483535        0.3077621588
 H         -7.0945368600        2.5721017881        0.0673770263
 H         -5.9008620883        2.7188254326        1.3522454688
 C         -5.6981147052        0.9455535925        0.1693923024
 H         -6.5610519910        0.3716308580        0.5136115937
 H         -5.5394249032        0.6861680486       -0.8767283195
 C         -4.4855276273        0.5123889454        1.0070935224
 H         -4.2386035659        1.2881435940        1.7382908940
 H         -4.7403172109       -0.3777364605        1.5912264218
 H         -3.3868154946        3.0043528817        0.4945541793
 H         -3.2467880869        4.1148758232       -0.8538029092
 H         -3.9811537269        1.7757675301       -2.1542758846
 H         -2.3557104164        2.4221713109       -2.0333809246
 O         -1.5483425213        0.4059092989       -1.3772097526
 C         -0.8624074401       -0.7292866286       -0.9839690368
 O          0.1726429672       -0.9468734295       -1.6423746075
 O         -2.9909695659       -1.6848568611        1.7695272146
 C         -0.6581077918       -2.7201459277        0.5617048646
 C          0.8176267474       -2.4301286838        0.6788415766
 C          1.8144668974       -3.2407597185        0.1517174492
 C          3.1482739560       -2.8959268882        0.2914859427
 C          3.5146583539       -1.7278551505        0.9334516606
 C          2.5236255368       -0.9090811925        1.4624709579
 C          1.1939857156       -1.2777593711        1.3592484083
 H          0.4369076535       -0.6280650826        1.7753932846
 N          2.8335531721        0.3176529475        2.0919362706
 S          2.3536307752        1.6970429272        1.2643414336
 O          2.8058422959        2.8047524628        2.0800989343
 O          0.9404162045        1.6394814902        0.9945763283
 C          3.3115487698        1.6470297399       -0.2402788672
 C          2.9110272773        0.8249078063       -1.2744032642
 C          3.7196795233        0.7312898100       -2.3978681203
 C          4.9021615532        1.4509625315       -2.4676414856
 C          5.2880033582        2.2731996104       -1.4192513325
 C          4.4897079129        2.3684143494       -0.2914738849
 H          4.7463482232        2.9942380341        0.5481454696
 H          6.2064712146        2.8349401581       -1.4757408026
 H          5.5251922227        1.3704966936       -3.3444766076
 H          3.4125603348        0.0896340650       -3.2081190790
 H          1.9836398789        0.2765701459       -1.2055295142
 H          3.8117112745        0.4101660258        2.3331341526
 H          4.5530553854       -1.4446382599        1.0193810892
 H          3.9109295188       -3.5363156911       -0.1244010367
 H          1.5492439913       -4.1352464595       -0.3872259034
 H         -1.0520058084       -2.8738099458        1.5810916690
 C         -0.9682088552       -3.9890174095       -0.2193174496
 C         -2.2263379493       -4.1166799771       -1.0236982534
 C         -0.9003796604       -4.0365112064       -1.7155203773
 H         -0.5138278626       -4.9296894111       -2.1840438421
 H         -0.6424352937       -3.1238353867       -2.2290531279
 H         -2.7472981076       -5.0623600721       -1.0113890626
 H         -2.8809932880       -3.2583207712       -1.0704176779
 H         -0.6518776700       -4.8812200285        0.3121038409
