  62
        -98.94947734
 C         -1.0909560784       -1.7184883679        0.1210089178
 C         -1.7086845922       -0.9245460841        1.1159654337
 C         -2.8444844475       -0.1082062016        0.6738768666
 C         -3.2230607202       -0.1375822276       -0.6168862557
 C         -4.3603597670        0.6390461690       -1.2226966166
 C         -3.9967947969        2.0853428535       -1.5866964245
 C         -3.8788475711        3.0451438303       -0.4018934890
 H         -3.8665156259        4.0570492515       -0.8119301794
 H         -4.7655128167        2.9577699557        0.2276877035
 C         -2.6160620464        2.8477923444        0.4480704740
 H         -1.8746002553        2.2912295743       -0.1314031445
 H         -2.1701438695        3.8220021928        0.6655323546
 C         -2.8555174102        2.1518799905        1.7882759650
 H         -3.4820674248        2.7873593917        2.4187488539
 H         -1.8914630254        2.0320552315        2.2884774922
 C         -3.5175898731        0.7719341018        1.6846395051
 H         -3.4327978318        0.2799075612        2.6571238367
 H         -4.5741252079        0.8825753289        1.4406326473
 H         -4.7761056862        2.4596468795       -2.2550481073
 H         -3.0544834905        2.0815161089       -2.1410254680
 H         -5.2137085217        0.6361965808       -0.5433336824
 H         -4.6418940244        0.1133539445       -2.1377456949
 O         -2.6090258488       -0.9195896224       -1.5435450717
 C         -1.5231158815       -1.7154983467       -1.2059777093
 O         -1.0482380781       -2.3646739981       -2.1576251963
 O         -1.3289496611       -0.8989921848        2.3182864331
 C          0.1129843623       -2.5569930384        0.4987718160
 C          1.3574558596       -2.1238174099       -0.2415243897
 C          2.4516708492       -2.9671205870       -0.4054686312
 C          3.5871642517       -2.5221362101       -1.0590935025
 C          3.6681418344       -1.2310667308       -1.5504135645
 C          2.5803609955       -0.3805560683       -1.3925030430
 C          1.4447325379       -0.8333998717       -0.7399810766
 H          0.5986088395       -0.1719216864       -0.6562624088
 N          2.6027382531        0.9294543874       -1.8875086457
 S          1.7116230588        2.1435616981       -1.1695543027
 O          0.3039221843        1.9627041354       -1.4218701689
 O          2.2956531891        3.3599015261       -1.6936939664
 C          2.0728200691        2.0086656339        0.5715265131
 C          1.1210861959        1.5393453696        1.4517605897
 C          1.4552489721        1.3856871477        2.7877577427
 C          2.7307613321        1.7107143309        3.2209472206
 C          3.6745266209        2.1959473615        2.3273518494
 C          3.3470976528        2.3419500866        0.9896823520
 H          4.0503934372        2.7220703497        0.2667463633
 H          4.6638311670        2.4544101367        2.6689557825
 H          2.9883879039        1.5867634832        4.2609282272
 H          0.7141938673        0.9962761745        3.4683927953
 H          0.1351573747        1.2919778793        1.0919612466
 H          3.4909169969        1.2518423028       -2.2397882946
 H          4.5541678535       -0.8880948880       -2.0617203432
 H          4.4257353954       -3.1898715831       -1.1853802291
 H          2.4095411901       -3.9756066073       -0.0271932563
 H          0.2769575599       -2.3632092687        1.5706131092
 C         -0.1823693636       -4.0337117526        0.3149137183
 C          0.3453833330       -5.0471172772        1.2850540942
 C         -1.1139944273       -4.7091036578        1.2753152691
 H         -1.8145393785       -5.4348705569        0.8905039276
 H         -1.5065016456       -4.1111187902        2.0849717702
 H          0.6484045092       -6.0120441601        0.9072924003
 H          0.9366967910       -4.6888910569        2.1143186734
 H         -0.2550823257       -4.3130713388       -0.7301676699
