  62
        -98.94496707
 C          1.8575412393       -0.3979756974       -0.0490966009
 C          2.9306714056       -0.5058107249       -0.9746795435
 C          4.0844399835        0.3680857144       -0.7434767063
 C          4.0691712351        1.2291700720        0.2896244202
 C          5.1546552017        2.2080816305        0.6458501225
 C          6.2908528525        1.6046331630        1.4830306190
 C          7.2299229189        0.6660091131        0.7243167660
 H          7.5874098998        1.1632055325       -0.1779678574
 H          8.0965065579        0.4930772565        1.3655782549
 C          6.6095707591       -0.6892454618        0.3569436870
 H          7.3118355234       -1.4892859857        0.6016709306
 H          5.7134733048       -0.8547696062        0.9594283529
 C          6.2469340804       -0.8409375696       -1.1203752089
 H          5.7830903321       -1.8205571871       -1.2604198599
 H          7.1553492298       -0.8091138961       -1.7259893204
 C          5.2734960467        0.2230180148       -1.6443696704
 H          4.9109251315       -0.0958004395       -2.6246366928
 H          5.7849786908        1.1790544702       -1.7550334543
 H          5.8552965111        1.0753528472        2.3336971549
 H          6.8816769747        2.4352537128        1.8761389125
 H          5.5650805169        2.6463025160       -0.2644677853
 H          4.6799583008        3.0001160814        1.2292361111
 O          3.0164366439        1.3206941771        1.1416295690
 C          1.8978011077        0.5092793015        1.0094086193
 O          1.0388918079        0.7137586976        1.8922814524
 O          2.9222423647       -1.3028089119       -1.9496961962
 C          0.6739413290       -1.3232590846       -0.2775135865
 C         -0.4781101409       -0.6094621643       -0.9432268722
 C         -0.9268255174       -0.9949578317       -2.2007058759
 C         -2.0076560985       -0.3617530937       -2.7903022449
 C         -2.6628055607        0.6666815741       -2.1376115428
 C         -2.2158188908        1.0633965678       -0.8839225198
 C         -1.1372960673        0.4238147438       -0.2921980810
 H         -0.7936965372        0.7408498237        0.6811391072
 N         -2.8896931917        2.0992618616       -0.2024173580
 S         -4.5160867962        1.8079791514        0.0875388940
 O         -5.2669542189        2.0780740073       -1.1130082857
 O         -4.8598347851        2.6066090219        1.2425480469
 C         -4.5887899778        0.0677172781        0.4722348793
 C         -4.0467784068       -0.3541915347        1.6699162147
 C         -4.0245213264       -1.7093318956        1.9547719438
 C         -4.5343591960       -2.6154311071        1.0375994665
 C         -5.0752769176       -2.1756502245       -0.1602188299
 C         -5.1017170095       -0.8209671078       -0.4502202159
 H         -5.5121315345       -0.4361322802       -1.3691452856
 H         -5.4713311095       -2.8831417022       -0.8705087311
 H         -4.5102688596       -3.6708188595        1.2591401694
 H         -3.6053922005       -2.0514833887        2.8876382303
 H         -3.6601409368        0.3779482147        2.3611321299
 H         -2.4276459029        2.3623122171        0.6569443817
 H         -3.5111666666        1.1683569455       -2.5745122403
 H         -2.3441771595       -0.6726452392       -3.7674059322
 H         -0.4150408996       -1.7912195700       -2.7209463106
 H          1.0421221640       -2.0847987914       -0.9778170042
 C          0.1985740249       -2.0198866505        0.9837489985
 C         -0.6141256725       -3.2718990137        0.8565337209
 C          0.7943672077       -3.3404654920        1.3640981449
 H          0.9597600925       -3.5477910422        2.4107489403
 H          1.5526721235       -3.7526414855        0.7143123998
 H         -1.4214495707       -3.4326902983        1.5533925203
 H         -0.8124954452       -3.6387224998       -0.1387864494
 H         -0.0483089349       -1.3366389181        1.7855533577
