  62
        -98.93836386
 C         -2.9727737308       -0.3728430112       -0.2471102803
 C         -2.4558046006       -0.8524666307        0.9839226399
 C         -1.8309017107       -2.1813916907        0.9312498504
 C         -1.8936741608       -2.8963316412       -0.2065247293
 C         -1.1498569908       -4.1763213213       -0.4521540289
 C          0.2205751391       -3.8837955915       -1.0849126292
 C          1.0143423392       -2.7805007912       -0.3808050297
 H          1.9628762991       -2.6716001715       -0.9126223499
 H          0.4777843792       -1.8329727113       -0.4849586801
 C          1.2920872193       -3.0411582906        1.1063126304
 H          2.3333669494       -2.7860332706        1.3143869401
 H          1.1645547094       -4.1024732905        1.3220440108
 C          0.4320919195       -2.2231641602        2.0722637601
 H          0.8482805796       -2.3383227698        3.0761089101
 H          0.4933171794       -1.1618725603        1.8138904097
 C         -1.0506757605       -2.6153225202        2.1392028604
 H         -1.1458541105       -3.6894579501        2.3044477109
 H         -1.4949784904       -2.0917729898        2.9903307203
 H          0.8045895991       -4.8053758015       -1.0879352289
 H          0.0619663890       -3.5782366420       -2.1221322093
 H         -1.7316754309       -4.7944030415       -1.1374517186
 H         -1.0242715607       -4.7091144609        0.4876890213
 O         -2.5747393509       -2.4770152816       -1.3058759694
 C         -3.0549152009       -1.1760140216       -1.3821062599
 O         -3.5207829111       -0.8624253321       -2.4972766300
 O         -2.4593789105       -0.1854268802        2.0491537496
 C         -3.2862169208        1.1045082988       -0.3892868308
 C         -2.0467037407        1.8944053289       -0.0200387713
 C         -2.0918852907        3.1441960392        0.5840438682
 C         -0.9208434706        3.7925284193        0.9411690978
 C          0.3158271994        3.2049857192        0.7421258179
 C          0.3735028493        1.9591566290        0.1311633084
 C         -0.7990093808        1.3443492588       -0.2813683012
 H         -0.7382003608        0.3845737886       -0.7810483708
 N          1.5881643293        1.2644083989       -0.0106474015
 S          2.9982195492        1.9523653386       -0.6115043919
 O          3.3335630293        3.1112029290        0.1740025476
 O          2.8866523190        2.1637807481       -2.0403410720
 C          4.1065785392        0.6040137188       -0.2675223815
 C          4.6580825894        0.5043559093        0.9946773085
 C          5.4564118294       -0.5887954906        1.2913984689
 C          5.6829471293       -1.5608141910        0.3283100192
 C          5.1218059591       -1.4466647915       -0.9346643108
 C          4.3227586091       -0.3554213516       -1.2375579711
 H          3.8712525890       -0.2236487020       -2.2081794211
 H          5.3009659990       -2.2031890118       -1.6817861005
 H          6.3011941793       -2.4129531009        0.5626186995
 H          5.8951635595       -0.6814876202        2.2717403988
 H          4.4541483195        1.2832918696        1.7105539682
 H          1.4533130692        0.3716369087       -0.4676215711
 H          1.2276874894        3.6911277393        1.0476943676
 H         -0.9729709006        4.7646699395        1.4079174674
 H         -3.0446866106        3.6066598993        0.7853090081
 H         -3.5085228109        1.2752776483       -1.4534552309
 C         -4.4972444807        1.4966211791        0.4314442091
 C         -5.4193682107        2.5782666789       -0.0431886612
 C         -5.8600244708        1.1468323589       -0.0834805005
 H         -6.6081223607        0.8144819892        0.6202803897
 H         -5.9128760009        0.6529646285       -1.0431949603
 H         -5.8694524107        3.2301663192        0.6903914686
 H         -5.1874275708        3.0608153186       -0.9809617614
 H         -4.3226086306        1.4004134296        1.4966738592
