  62
        -98.93962962
 C         -2.6628217470       -0.8496468130        0.3829220793
 C         -2.6796413749        0.2841811275        1.2313256272
 C         -3.4233088511        1.4469019229        0.7362906464
 C         -4.0292596691        1.3884205880       -0.4637986785
 C         -4.8480973832        2.4809833641       -1.0962120742
 C         -4.0164059740        3.5291452776       -1.8480892155
 C         -3.2190763166        4.4851738914       -0.9600939218
 H         -2.8606663427        5.2931431219       -1.6009142682
 H         -3.8835080376        4.9287135642       -0.2178898580
 C         -2.0152433822        3.8414051795       -0.2579191981
 H         -1.1437300245        4.4918224789       -0.3605276340
 H         -1.7687847251        2.8972062127       -0.7497545732
 C         -2.2161515375        3.5852482262        1.2358773776
 H         -2.3341661506        4.5371915804        1.7581483464
 H         -1.3183288444        3.0974258739        1.6239852056
 C         -3.4201651212        2.6939813610        1.5684025456
 H         -3.3463769258        2.3944450170        2.6167096123
 H         -4.3481902583        3.2473919382        1.4274074537
 H         -4.7076427522        4.1202642960       -2.4532087241
 H         -3.3370707961        3.0119179547       -2.5297198837
 H         -5.4538832393        2.9726758247       -0.3345425607
 H         -5.5151796620        1.9941271291       -1.8107985764
 O         -3.9773909850        0.2858689705       -1.2563147799
 C         -3.2749946184       -0.8479020927       -0.8709804886
 O         -3.2845815106       -1.7617616169       -1.7162674166
 O         -2.0998556534        0.3220500347        2.3506911241
 C         -1.8973059983       -2.0809478823        0.8381554208
 C         -0.6601293383       -2.2251587437       -0.0146419575
 C         -0.4540851469       -3.2679802129       -0.9066549744
 C          0.6956899338       -3.3091787502       -1.6775741146
 C          1.6591086878       -2.3234440761       -1.5734857777
 C          1.4682517091       -1.2807723939       -0.6746554035
 C          0.3171780531       -1.2423943041        0.0974641999
 H          0.1623285836       -0.4308754304        0.7977135401
 N          2.4365010032       -0.2642004367       -0.5656304592
 S          4.0546085430       -0.7519138044       -0.5227521963
 O          4.4981299634       -0.9750118912       -1.8761603627
 O          4.2134177656       -1.8666337041        0.3842470034
 C          4.8405615687        0.7047393811        0.1357747902
 C          5.1431327948        0.7603371366        1.4829712156
 C          5.7382940938        1.9051885065        1.9893026922
 C          6.0156056611        2.9698359744        1.1450656242
 C          5.7054302879        2.8990520962       -0.2050879592
 C          5.1117315548        1.7569501243       -0.7182813406
 H          4.8622901576        1.6532569921       -1.7613414686
 H          5.9251733326        3.7280701926       -0.8582474797
 H          6.4796743877        3.8590381343        1.5415632757
 H          5.9832489354        1.9618704258        3.0377197946
 H          4.9173481840       -0.0945240494        2.1002599888
 H          2.2306574003        0.3715574937        0.1932147765
 H          2.5586004629       -2.3500827009       -2.1672907210
 H          0.8432069454       -4.1224256079       -2.3724250871
 H         -1.1962950158       -4.0421661100       -1.0080073568
 H         -1.5724294655       -1.8549785974        1.8641251837
 C         -2.7767942871       -3.3111414716        0.8685920266
 C         -2.3642297960       -4.4933912439        1.6919467803
 C         -3.5196626907       -3.6440555370        2.1264175407
 H         -4.5175632996       -4.0475785858        2.0430974003
 H         -3.3833882627       -2.9896214255        2.9750241896
 H         -2.5681353748       -5.4830483263        1.3126170937
 H         -1.4403549159       -4.4165857714        2.2452766665
 H         -3.2838191244       -3.4944104354       -0.0710401800
