  62
        -98.94310307
 C         -2.5578253070       -0.1722531175        0.5293271244
 C         -2.1944104124        0.3647062280       -0.7313281696
 C         -1.9729774672        1.8188330943       -0.7709645651
 C         -2.0801501028        2.5370295965        0.3601885957
 C         -1.8559282369        4.0174252247        0.4685460392
 C         -0.4014898839        4.3453101677        0.8299034185
 C          0.6324357830        3.6423899654       -0.0501695702
 H          1.6175579154        4.0001664270        0.2594751997
 H          0.6117579196        2.5675773963        0.1483577926
 C          0.4525995365        3.8766224167       -1.5565907402
 H         -0.1701021323        4.7565989466       -1.7257519782
 H          1.4314972611        4.0807231764       -1.9951628868
 C         -0.1325364361        2.6803414314       -2.3101526830
 H          0.4074679443        1.7749754445       -2.0227577879
 H          0.0252515036        2.8388272958       -3.3806766451
 C         -1.6313963455        2.4291892172       -2.1009102720
 H         -2.1880974860        3.3570337705       -2.2535588087
 H         -1.9546879073        1.7045505717       -2.8540981325
 H         -0.2665035381        5.4266509166        0.7586356354
 H         -0.2254154317        4.0469153273        1.8662954370
 H         -2.1206390843        4.4870469751       -0.4770111443
 H         -2.5100922012        4.4042842357        1.2523205603
 O         -2.3871083781        1.9813828499        1.5618696777
 C         -2.6092487404        0.6195853822        1.6777148960
 O         -2.8481489279        0.2395227990        2.8434642349
 H         -0.2050953674       -1.2456612946        1.1454121416
 C         -0.3493592994       -2.0357928208        0.4208232594
 C         -1.6400396664       -2.4142320439        0.0722207882
 C         -1.8053052527       -3.4355714114       -0.8529682416
 C         -0.7001758550       -4.0378684968       -1.4301679874
 C          0.5811440990       -3.6262610173       -1.1144597691
 C          0.7560358413       -2.6109384127       -0.1803053353
 N          2.0411783732       -2.1616613392        0.1787813044
 S          2.2065543375       -0.5033910668        0.4705692070
 O          1.8501416915       -0.2376176267        1.8437651773
 O          1.5045380814        0.2558468620       -0.5360468730
 C          3.9683713456       -0.3105752539        0.2726933162
 C          4.4661707637        0.3066709201       -0.8586352441
 C          5.8393266925        0.4284787167       -1.0063206495
 C          6.6856834902       -0.0695134440       -0.0274383272
 C          6.1707520159       -0.6863530030        1.1035147018
 C          4.7993080714       -0.8092223241        1.2585664177
 H          4.3524173648       -1.2703738651        2.1238783457
 H          6.8317222205       -1.0700185833        1.8637984399
 H          7.7535074351        0.0259329746       -0.1450075760
 H          6.2416305643        0.9105773300       -1.8826238686
 H          3.7681964842        0.6820010277       -1.5898382714
 H          2.7567514645       -2.4931992700       -0.4545824286
 H          1.4390673254       -4.0787654393       -1.5884216289
 H         -0.8408771287       -4.8258905087       -2.1545768376
 H         -2.7967209233       -3.7403101944       -1.1453639134
 C         -2.7731225712       -1.6644143704        0.7291744103
 H         -2.6829314627       -1.8157315964        1.8186761845
 C         -4.1535113974       -2.1682122434        0.3362504436
 C         -5.3366918628       -1.2477916964        0.3273579223
 C         -4.8058646364       -1.7980049213       -0.9604770605
 H         -5.3887291225       -2.5501733889       -1.4719181040
 H         -4.2630215102       -1.1397031606       -1.6193484261
 H         -5.1591722631       -0.2056391109        0.5516486649
 H         -6.2785973478       -1.6208564146        0.7007564088
 H         -4.3346248144       -3.1739835906        0.7032570203
 O         -2.0785365319       -0.3201185319       -1.7803242106
