  62
        -98.94486390
 C         -1.9385684386       -0.5281230904       -0.6000586395
 C         -3.0137608104       -1.3142514325       -0.1194026234
 C         -4.3489202852       -0.7216377235       -0.2512561845
 C         -4.4869621683        0.4922763825       -0.8149995272
 C         -5.7845590345        1.2194127258       -1.0430843571
 C         -6.2865757533        2.0008568346        0.1788868897
 C         -6.8385104545        1.1427908698        1.3180116440
 H         -7.3511935165        1.8168654268        2.0070987593
 H         -7.5846236086        0.4528609579        0.9225745023
 C         -5.7708050001        0.3604666315        2.0954336091
 H         -4.7859174662        0.7855982069        1.8883134827
 H         -5.9475234939        0.4703684759        3.1677593755
 C         -5.7371958661       -1.1375568100        1.7926959338
 H         -6.6724929696       -1.5983840293        2.1179839962
 H         -4.9231546993       -1.5855304026        2.3681004927
 C         -5.5141019258       -1.4773111064        0.3132110306
 H         -5.2872631336       -2.5434553020        0.2364468262
 H         -6.4166562593       -1.2694124695       -0.2609225584
 H         -5.4712229325        2.6242020332        0.5533872418
 H         -7.0820951997        2.6660810119       -0.1647878185
 H         -5.6040411975        1.9281671242       -1.8542056189
 H         -6.5498730038        0.5120473617       -1.3638860210
 O         -3.4288486109        1.2115996727       -1.2751577553
 C         -2.1302503686        0.7323642030       -1.1655690361
 O         -1.2617155043        1.5083726342       -1.6070633357
 H          1.7365733933        0.4068733013       -1.1202455888
 C          1.4157483213        0.5155296813       -0.0985988652
 C          0.3022440908       -0.1607909889        0.3718686623
 C         -0.0893118475        0.0353910598        1.6950303139
 C          0.6079046911        0.8962637962        2.5185837891
 C          1.7177334310        1.5739570719        2.0433287895
 C          2.1184173933        1.3853702947        0.7266241421
 N          3.2247455458        2.0828641771        0.2175537519
 S          4.3695634979        1.3288556356       -0.7356680316
 O          5.4748697072        2.2608495590       -0.7730195171
 O          3.8068745254        0.9537887555       -2.0069535883
 C          4.8358801621       -0.1208941766        0.1924152012
 C          4.2025514782       -1.3223365854       -0.0522301927
 C          4.5335457430       -2.4222880826        0.7236953774
 C          5.4846273180       -2.3026225738        1.7250192776
 C          6.1143572066       -1.0887802018        1.9560802615
 C          5.7853069398        0.0151746731        1.1868608249
 H          6.2582475630        0.9739250015        1.3252932197
 H          6.8571346679       -0.9999023161        2.7323956281
 H          5.7381735476       -3.1615474513        2.3261230946
 H          4.0462517487       -3.3671411457        0.5429425118
 H          3.4716099073       -1.3792877793       -0.8414777611
 H          3.6652382661        2.7059494102        0.8782951566
 H          2.2601063559        2.2546943147        2.6818078971
 H          0.2885863265        1.0418446198        3.5395137067
 H         -0.9592965485       -0.4914708616        2.0627490080
 C         -0.5271742942       -1.0795238167       -0.4893951556
 H         -0.6344424990       -2.0401751556        0.0353410849
 C          0.0541058646       -1.3401285953       -1.8618894090
 C          1.1093310171       -2.3888304012       -2.0411973844
 C         -0.2779207918       -2.6253763632       -2.5567500577
 H         -0.4451652337       -2.6061035760       -3.6232406951
 H         -0.9073823388       -3.3265227961       -2.0284310844
 H          1.8989856423       -2.2072369162       -2.7555736921
 H          1.4175068748       -2.9389032453       -1.1646958596
 H          0.1122708352       -0.4473108048       -2.4747238333
 O         -2.8638685945       -2.4551906501        0.3936669507
