  62
        -98.93339153
 C         -2.3993533916       -1.5690366317        0.2316857429
 C         -2.7146626393       -0.6998450248       -0.8406337672
 C         -3.7349811135        0.3277731061       -0.5632532350
 C         -4.2785110314        0.4090839460        0.6637072196
 C         -5.2650325606        1.4467176233        1.1187094955
 C         -4.5409736975        2.7780667450        1.4035030430
 C         -4.9263816060        3.9194492218        0.4619110309
 H         -5.9104942443        4.2972979994        0.7470219910
 H         -4.2061768883        4.7260690683        0.6152492165
 C         -4.9730341940        3.5690638235       -1.0284375788
 H         -5.9092428650        3.0572130573       -1.2559681278
 H         -4.9931356777        4.5134933994       -1.5763326941
 C         -3.8090468298        2.7194386013       -1.5550402814
 H         -2.9278922953        2.8393910845       -0.9232910901
 H         -3.5396471123        3.0900735183       -2.5463695949
 C         -4.1290988051        1.2203999565       -1.7079356833
 H         -5.1948680069        1.0948466438       -1.9178021553
 H         -3.5764825554        0.8324230065       -2.5688350182
 H         -4.7499971106        3.0944249327        2.4265627066
 H         -3.4641180150        2.6032311272        1.3449796592
 H         -6.0319725645        1.5829289813        0.3594206325
 H         -5.7350385320        1.0692225633        2.0270519623
 O         -3.9268907087       -0.4224070526        1.6785689245
 C         -2.9934181157       -1.4257193032        1.4890871438
 O         -2.7829547061       -2.1242461634        2.5004842381
 H         -0.1052735675       -0.7103927805       -1.1458970544
 C          0.5131024004       -1.1686921852       -0.3877377837
 C          0.0028682809       -2.2260371766        0.3536053936
 C          0.8060707906       -2.8020279426        1.3302784933
 C          2.0891617618       -2.3325305764        1.5522507864
 C          2.5969290385       -1.2851122150        0.8046871669
 C          1.7989215495       -0.6969437391       -0.1680848800
 N          2.3063467402        0.3637129796       -0.9404893888
 S          2.9872741869        1.6641896971       -0.1249160107
 O          2.4064827494        1.8278483666        1.1886239113
 O          2.8645095468        2.7883576395       -1.0270107327
 C          4.7056810769        1.2178909816        0.0140285300
 C          5.3892219030        0.8976383949       -1.1427730410
 C          6.7277473184        0.5503508542       -1.0545029384
 C          7.3574485425        0.5322031203        0.1812641346
 C          6.6584774865        0.8604739026        1.3327459778
 C          5.3187655397        1.2078451572        1.2515378039
 H          4.7332324823        1.4637380658        2.1203610760
 H          7.1495366519        0.8462741143        2.2924976356
 H          8.3990822829        0.2604007847        0.2475120232
 H          7.2744669390        0.2944337602       -1.9477687348
 H          4.8634911063        0.9264365828       -2.0825254823
 H          1.6576973003        0.6858526997       -1.6452031896
 H          3.5948714584       -0.9151485397        0.9740157794
 H          2.7014274964       -2.7872440865        2.3159075194
 H          0.4114185503       -3.6104348166        1.9283013664
 C         -1.4030070807       -2.7132725437        0.1151388011
 H         -1.6596638876       -3.3950123836        0.9409964296
 C         -1.5570046615       -3.4984558745       -1.1818616290
 C         -0.5216410941       -3.5425902361       -2.2616028533
 C         -0.7480173380       -4.7435879761       -1.3968642603
 H         -1.2319153431       -5.6096606340       -1.8220659990
 H          0.0062214757       -4.9743098674       -0.6595256328
 H          0.3887877565       -2.9812050038       -2.1241623966
 H         -0.8697982554       -3.5615997014       -3.2831599683
 H         -2.5907132973       -3.5292778525       -1.5112501195
 O         -2.1855698944       -0.7598736447       -1.9816646932
