  62
        -98.93988654
 C         -1.7933554870       -1.4266317938       -0.5298255513
 C         -1.4241751464       -0.1915813193       -1.1090379964
 C         -2.3276258065        0.9559334019       -0.8803010376
 C         -3.4788811775        0.7599026885       -0.2138572478
 C         -4.5439072427        1.7599367614        0.1540461941
 C         -4.1390674105        2.6525616494        1.3347099536
 C         -2.7434212402        3.2599286353        1.2241695365
 H         -2.5568907215        3.8310691027        2.1380739042
 H         -1.9974854701        2.4628244611        1.1913359957
 C         -2.5377674743        4.1983386655        0.0366431176
 H         -3.2941973613        4.9860251643        0.0649114384
 H         -1.5604181973        4.6691189357        0.1712865421
 C         -2.5552219356        3.5433469689       -1.3481032384
 H         -3.5703854075        3.3854563785       -1.7037927734
 H         -2.0879638097        4.2455664839       -2.0444940075
 C         -1.7647017606        2.2424545848       -1.4336182707
 H         -1.5358392623        2.0350189099       -2.4854143461
 H         -0.7938490504        2.3797583862       -0.9407394280
 H         -4.1718515314        2.0499123987        2.2459899591
 H         -4.8780195336        3.4506001740        1.4307589583
 H         -4.8099267324        2.3642760516       -0.7080205664
 H         -5.4253112820        1.1817713794        0.4414831115
 O         -3.8346550026       -0.4697851753        0.2611635820
 C         -2.9992608779       -1.5619752368        0.1627172944
 O         -3.4424125904       -2.5963575727        0.7043110063
 H          0.9815799482       -0.7804397701       -0.0744769386
 C          0.9484912118       -1.5139865032        0.7123377359
 C          0.0521325134       -2.5713394061        0.6280134347
 C          0.0199144156       -3.5069868617        1.6546043561
 C          0.8536041635       -3.3739344632        2.7510198011
 C          1.7115835680       -2.2950257842        2.8532330972
 C          1.7528172503       -1.3520110068        1.8298959095
 N          2.6134494934       -0.2523223237        1.9196810985
 S          2.2623580961        1.2540739760        1.2674216307
 O          2.8945649267        2.1848179304        2.1822861573
 O          0.8482081039        1.4392016160        1.0560177199
 C          3.1897724015        1.2577762814       -0.2527524434
 C          2.5702582111        1.1152920428       -1.4765636205
 C          3.3534791502        1.1045619925       -2.6220814423
 C          4.7293836998        1.2353179490       -2.5263906040
 C          5.3363055038        1.3798784189       -1.2873026257
 C          4.5615008578        1.3913038114       -0.1402454516
 H          4.9891824612        1.5148735349        0.8408551149
 H          6.4070550759        1.4824760000       -1.2137990843
 H          5.3310104481        1.2251868717       -3.4217326453
 H          2.8762455351        0.9900126234       -3.5824040097
 H          1.4980964144        1.0023891533       -1.5317283745
 H          3.0973515435       -0.1656294017        2.8008354077
 H          2.3418793778       -2.1748228757        3.7215173546
 H          0.8200163951       -4.1061836649        3.5436466980
 H         -0.6810946657       -4.3270686368        1.6008083702
 C         -0.9088273266       -2.6654076230       -0.5349192285
 H         -1.5822098135       -3.5123823058       -0.3437267504
 C         -0.1823670853       -2.9182032640       -1.8397322877
 C          0.2776845573       -4.3094203328       -2.1522082271
 C         -0.8629743335       -3.7073292211       -2.9155605202
 H         -0.7050359389       -3.4179943877       -3.9434673963
 H         -1.8606004944       -4.0702472532       -2.7136378988
 H          1.2232373494       -4.4365542450       -2.6562516915
 H          0.0529670559       -5.0848911025       -1.4354769909
 H          0.4476068373       -2.0965577292       -2.1510482786
 O         -0.3854940499       -0.0159336953       -1.7998000692
