  62
        -98.93883387
 C         -1.8486583322       -0.9138442758       -0.1165135018
 C         -2.4332855173       -0.1910430321        0.9466190302
 C         -3.5281075597        0.7374632195        0.6037279629
 C         -3.8827226094        0.8681110643       -0.6884810657
 C         -4.9806253380        1.7178706081       -1.2711377128
 C         -6.3785078068        1.1202488681       -1.0428659409
 C         -6.6249186417        0.5776070822        0.3624138540
 H         -7.6016472987        0.0867098228        0.3616516990
 H         -5.8788674575       -0.1866863087        0.5873105302
 C         -6.6303289412        1.6252602647        1.4730542219
 H         -6.9038983103        1.1142648908        2.3997456865
 H         -7.4042901796        2.3667465813        1.2625372480
 C         -5.3076640904        2.3575700726        1.7082921185
 H         -5.3906052163        2.8794964976        2.6662331287
 H         -5.1430282671        3.1229803817        0.9545267445
 C         -4.0865876013        1.4493070966        1.8127646523
 H         -3.2529989648        2.0338232207        2.2214552386
 H         -4.2826265585        0.6701516099        2.5582553921
 H         -7.1219827872        1.8841606034       -1.2766617482
 H         -6.5107242470        0.2944301363       -1.7460958226
 H         -4.9213007698        2.7277432059       -0.8757955532
 H         -4.7969492093        1.7714814065       -2.3465913383
 O         -3.2688447284        0.1700550092       -1.6865952230
 C         -2.2455632165       -0.7270949168       -1.4401136344
 O         -1.7832430177       -1.2767955346       -2.4571266513
 O         -2.0565380486       -0.3092840765        2.1453136142
 C         -0.7239662722       -1.8873906348        0.1834615782
 C          0.5468390871       -1.4378007954       -0.4954579837
 C          1.3759286522       -2.2901951943       -1.2120441264
 C          2.5271518517       -1.8086979542       -1.8127408113
 C          2.8814316849       -0.4770936364       -1.7058581091
 C          2.0689984322        0.3805026797       -0.9738308606
 C          0.9197853248       -0.1045703974       -0.3699801254
 H          0.2882859849        0.5672130880        0.1984679265
 N          2.4263202130        1.7329143514       -0.8426395513
 S          4.0226837323        2.0932575903       -0.4936230325
 O          3.9810016273        3.3629290286        0.1975912005
 O          4.8035784319        2.0628809138       -1.7050948919
 C          4.5649896038        0.7973810287        0.6064331592
 C          3.8949522126        0.6388184384        1.8034819508
 C          4.2791059472       -0.3828067868        2.6563737874
 C          5.3216171499       -1.2245929336        2.2993397892
 C          5.9875634675       -1.0492075441        1.0965158507
 C          5.6060680598       -0.0300851672        0.2384195452
 H          6.0940166434        0.1400614418       -0.7073959181
 H          6.7986934157       -1.7041658254        0.8224531398
 H          5.6156638305       -2.0209035325        2.9646557185
 H          3.7610639410       -0.5201240004        3.5920589201
 H          3.0907418317        1.3120497161        2.0549193901
 H          1.7940166561        2.2713596531       -0.2697227943
 H          3.7638008645       -0.0842195141       -2.1842289077
 H          3.1553768028       -2.4805581563       -2.3770741696
 H          1.1164310077       -3.3310798155       -1.3106164406
 H         -0.5679900818       -1.8244611805        1.2709676568
 C         -1.1353116134       -3.3011517902       -0.1686847919
 C         -0.5555984466       -4.4649956279        0.5767459536
 C         -1.9834906886       -4.0692940943        0.7988309111
 H         -2.7646511346       -4.7042586118        0.4085285325
 H         -2.2423390111       -3.5813981499        1.7273530874
 H         -0.3572297805       -5.3772062075        0.0346510326
 H          0.1555326071       -4.2525586302        1.3604003872
 H         -1.3490277648       -3.4208406932       -1.2247969152
