  62
        -98.94623277
 C         -1.2813025691       -1.1781190384        0.5123213653
 C         -1.7007635867       -0.5051083402       -0.6615824095
 C         -2.4828208606        0.7225775189       -0.4462736346
 C         -2.6561734062        1.1859280510        0.8040333581
 C         -3.4654042014        2.3967511596        1.1672419872
 C         -4.9214864014        2.0178037901        1.4730372931
 C         -5.5617006388        1.1181723616        0.4155864793
 H         -5.0561581766        0.1497585967        0.4175754933
 H         -6.5945464576        0.9409130202        0.7233938757
 C         -5.5444620845        1.6959758517       -1.0065724250
 H         -5.3722492982        2.7721742839       -0.9667825923
 H         -6.5271118781        1.5423730353       -1.4575111380
 C         -4.5192514795        1.0518470466       -1.9419754385
 H         -4.7420445079        1.3745767397       -2.9623906542
 H         -4.6289065112       -0.0350407712       -1.9117214249
 C         -3.0514426751        1.3992114568       -1.6613380329
 H         -2.4568163140        1.0417084409       -2.5067548590
 H         -2.9433076250        2.4830989990       -1.5900760960
 H         -4.9490240961        1.4923722023        2.4305865521
 H         -5.5034694168        2.9357942257        1.5736221647
 H         -3.0261505334        2.8533933345        2.0561892876
 H         -3.4314666631        3.1122297062        0.3477787611
 O         -2.1367756339        0.5720256491        1.8987874505
 C         -1.4609655751       -0.6299284149        1.7829728114
 O         -1.0613698633       -1.0996395002        2.8694061777
 H          1.3456964568       -1.1920928210        1.7389431757
 C          1.7041450846       -1.4791555847        0.7581640480
 C          0.8636971336       -2.2063026114       -0.0773178725
 C          1.3254505120       -2.5632026407       -1.3361841568
 C          2.5958895701       -2.1919990592       -1.7455625851
 C          3.4276262602       -1.4647268921       -0.9139902556
 C          2.9741838130       -1.1088502980        0.3501318527
 N          3.8050878486       -0.3428240585        1.1979380994
 S          4.2427952174        1.1518655482        0.5762070925
 O          5.3194201034        0.9744696081       -0.3646276967
 O          4.5336668330        1.9823041246        1.7231764930
 C          2.7829226722        1.7294596551       -0.2705711609
 C          2.7384731312        1.7193173787       -1.6493622182
 C          1.5714999498        2.1133692961       -2.2837325820
 C          0.4747643736        2.5037748162       -1.5325267243
 C          0.5342041311        2.5066392637       -0.1476077688
 C          1.6970271624        2.1114389232        0.4919215136
 H          1.7762827143        2.1047294402        1.5680079499
 H         -0.3238753829        2.8037871359        0.4346814648
 H         -0.4343087069        2.8047386571       -2.0274047088
 H          1.5169031819        2.1087302998       -3.3602162402
 H          3.6141652757        1.4093019637       -2.1954899156
 H          3.4126467866       -0.2222373382        2.1214340348
 H          4.4142125842       -1.1577755314       -1.2214945303
 H          2.9412180687       -2.4708376964       -2.7292676039
 H          0.6858003769       -3.1166832214       -2.0029874061
 C         -0.5271863750       -2.4975053553        0.4304699877
 H         -0.4357756438       -2.8555406727        1.4655668848
 C         -1.2809646282       -3.5314570690       -0.3761321277
 C         -0.9346919865       -4.9806332053       -0.2193737779
 C         -2.2272690905       -4.4553861174        0.3274286633
 H         -3.1467945086       -4.7274625249       -0.1688257067
 H         -2.3252891841       -4.3518432487        1.3986309854
 H         -0.1535654295       -5.2340572470        0.4815414112
 H         -0.9671526866       -5.6169175405       -1.0904630704
 H         -1.5704005506       -3.1796212968       -1.3581091845
 O         -1.4525263211       -0.9033468908       -1.8271257029
