  62
        -98.93375157
 C         -2.0836242436       -0.4710867428        0.3650889195
 C         -2.8127138548        0.7397128377        0.2757533252
 C         -4.1855417027        0.6718256462       -0.2598097769
 C         -4.6677229002       -0.5250965226       -0.6420354109
 C         -6.0364231346       -0.8535507705       -1.1764327769
 C         -7.1120438769       -0.8748784313       -0.0783786058
 C         -7.0369317314        0.2791690814        0.9178880250
 H         -7.7747220270        0.0896375193        1.7020832411
 H         -6.0538736321        0.2802694426        1.3924037230
 C         -7.3202426661        1.6616752940        0.3351584186
 H         -7.3211552910        2.3703571229        1.1673872194
 H         -8.3196257924        1.6667990491       -0.1057286784
 C         -6.3243984020        2.1631208132       -0.7127756635
 H         -6.5083924799        3.2326906201       -0.8506437441
 H         -6.4994129669        1.6936938642       -1.6770707311
 C         -4.8576542968        2.0223142037       -0.3174809284
 H         -4.2510902419        2.6230419180       -1.0063128390
 H         -4.7055288537        2.4776146039        0.6679569699
 H         -7.0025230846       -1.8058495519        0.4831360593
 H         -8.0930240355       -0.8827817092       -0.5563705333
 H         -5.9696046773       -1.8509505416       -1.6164895990
 H         -6.3040798286       -0.1597786262       -1.9678470972
 O         -3.9294681867       -1.6654292567       -0.5452653711
 C         -2.6326391931       -1.6822964238       -0.0566717417
 O         -2.1113523929       -2.8120094280       -0.0594787375
 O         -2.3374149979        1.8492696575        0.6434555956
 C         -0.6789199143       -0.3785944557        0.9299969557
 C          0.3380978048       -0.1522724487       -0.1601578470
 C          0.3322571757       -0.9130514351       -1.3259195765
 C          1.2749114873       -0.6927924323       -2.3131375266
 C          2.2541684358        0.2719238509       -2.1482963686
 C          2.2730450290        1.0313938312       -0.9855587133
 C          1.3109803459        0.8243385425       -0.0059918949
 H          1.3350465657        1.4337929333        0.8843944163
 N          3.2678017422        2.0075085771       -0.7667961904
 S          4.3322484615        1.7213539928        0.4958984959
 O          3.5999519644        1.6159673395        1.7301821522
 O          5.3210344489        2.7715098585        0.4119441012
 C          5.0762236829        0.1533925409        0.0811744085
 C          6.2703885705        0.1397742718       -0.6129399862
 C          6.8059646937       -1.0777392057       -1.0011602812
 C          6.1356331861       -2.2539490947       -0.7002498111
 C          4.9360357438       -2.2232067144       -0.0056330936
 C          4.3978254015       -1.0088651708        0.3898428116
 H          3.4704725949       -0.9492137477        0.9352751922
 H          4.4133306025       -3.1365765925        0.2295140121
 H          6.5501734413       -3.2012340404       -1.0070182831
 H          7.7402906447       -1.1056467098       -1.5383884828
 H          6.7585325727        1.0781074653       -0.8218323848
 H          3.7933525575        2.2424210930       -1.5978316124
 H          2.9949696360        0.4387117024       -2.9157954656
 H          1.2542489965       -1.2862205155       -3.2144456824
 H         -0.4152466245       -1.6829387128       -1.4437562843
 H         -0.6873135002        0.5276041574        1.5569745517
 C         -0.3095183440       -1.5514543734        1.8296046500
 C          0.7794813179       -2.5236906672        1.4989116337
 C          0.9814226600       -1.5213965709        2.5935918163
 H          0.9832969231       -1.8655094782        3.6169808058
 H          1.6470750216       -0.6882512708        2.4149342004
 H          0.6222743986       -3.5574781898        1.7656383903
 H          1.3151434047       -2.3910739133        0.5718312539
 H         -1.1724516334       -1.9544583511        2.3488737034
