  62
        -98.93447010
 C         -1.6661571101       -0.7146532994       -0.4199668995
 C         -2.9779180503       -1.0616420690       -0.8243400490
 C         -4.0993825299       -0.4871700088       -0.0557758885
 C         -3.8205097893        0.2950932809        1.0031749915
 C         -4.7804860587        1.0129436810        1.9146348520
 C         -5.3976353487        2.2621614313        1.2664041525
 C         -5.8725800093        2.0719506516       -0.1715068574
 H         -6.1941898092        3.0471127618       -0.5466311071
 H         -5.0311719896        1.7500454215       -0.7877079577
 C         -7.0341629896        1.0971627520       -0.3495777671
 H         -7.8819157793        1.4358031421        0.2501384533
 H         -7.3337480000        1.1385631622       -1.3999955170
 C         -6.7413376698       -0.3635063482        0.0011316525
 H         -6.7582499694       -0.5221590984        1.0761178625
 H         -7.5540826601       -0.9669718779       -0.4136045173
 C         -5.4462849002       -0.9111878784       -0.5900502881
 H         -5.4610039404       -2.0049919384       -0.5101710982
 H         -5.4267909205       -0.7043577482       -1.6663937380
 H         -6.2319143083        2.5947929014        1.8863694229
 H         -4.6420759685        3.0514967711        1.2656903523
 H         -5.5550095388        0.3308089611        2.2526738922
 H         -4.2062749883        1.3234126807        2.7903637119
 O         -2.5408073490        0.5707808305        1.3811736411
 C         -1.4363949394        0.0804114603        0.7036438806
 O         -0.3487718991        0.4214335100        1.2020854702
 O         -3.2136857109       -1.8294081488       -1.7965225091
 C         -0.5081103805       -1.3104606896       -1.2007736100
 C          0.4936923197       -1.9040114000       -0.2446545105
 C          0.1108664497       -2.9804049800        0.5514027694
 C          0.9850027399       -3.5177990204        1.4759187290
 C          2.2553828301       -2.9907507708        1.6298710686
 C          2.6453073201       -1.9140767407        0.8419801487
 C          1.7703899699       -1.3881737103       -0.0987351909
 H          2.0917869099       -0.5615326303       -0.7080703709
 N          3.9019302403       -1.3296563511        1.0197457583
 S          4.6987649001       -0.3974238411       -0.0985870619
 O          4.4158426595       -0.8267244208       -1.4495995518
 O          6.0898882703       -0.4622379915        0.2973897976
 C          4.1336267207        1.2828192290        0.1206604187
 C          2.9835085610        1.5988557992        0.8144955692
 C          2.6176752614        2.9332516293        0.9218660995
 C          3.3968410414        3.9222505392        0.3446628094
 C          4.5517959311        3.5882102890       -0.3468746711
 C          4.9224813007        2.2590307089       -0.4605546815
 H          5.8137144404        1.9548777488       -0.9859722119
 H          5.1601631911        4.3564009789       -0.7965878912
 H          3.1029869617        4.9563484892        0.4332073297
 H          1.7132734217        3.1811203494        1.4546423299
 H          2.3623412310        0.8332608693        1.2504209693
 H          4.5156495105       -1.7631503014        1.6902749580
 H          2.9347323803       -3.3995946511        2.3620508283
 H          0.6753678500       -4.3518795604        2.0877382790
 H         -0.8876336004       -3.3821783398        0.4426382698
 H         -0.9617250209       -2.1334631293       -1.7780903700
 C          0.1206914893       -0.3643918095       -2.2123293801
 C         -0.6944860207        0.6937871808       -2.8912497096
 C          0.3734581698        1.0827135703       -1.9153417499
 H          1.2819201498        1.5287474702       -2.2951290402
 H          0.0791032803        1.4553997902       -0.9472749198
 H         -0.5275069910        0.8766701109       -3.9420494896
 H         -1.7258600105        0.7988256810       -2.5870628792
 H          0.8643927990       -0.8668929696       -2.8248030305
