  62
        -98.93489791
 C          1.4592945597        1.5998606498        0.4896949500
 C          1.4000624300        0.4201883198       -0.2929087400
 C          2.3133681001       -0.6617088101        0.1139996001
 C          3.0576099699       -0.5306689801        1.2254118902
 C          3.9931455300       -1.5547437900        1.8121459803
 C          5.2347870101       -1.9055250798        0.9695196304
 C          5.0570868304       -3.1270022398        0.0591245503
 H          5.9787534605       -3.7123315496        0.0750452005
 H          4.2757188304       -3.7640759399        0.4753596302
 C          4.7448417406       -2.8253748398       -1.4098445897
 H          5.6660325106       -2.5262767196       -1.9151480496
 H          4.4017430707       -3.7518855598       -1.8751491398
 C          3.7082597505       -1.7299945199       -1.6613892698
 H          3.4394228206       -1.7529596699       -2.7191981798
 H          4.1587669503       -0.7512811298       -1.4793135297
 C          2.4321639304       -1.8426541201       -0.8043173200
 H          1.5483570604       -1.8228802202       -1.4441595901
 H          2.4337826504       -2.7725474801       -0.2380685900
 H          5.5374194101       -1.0355934497        0.3870271005
 H          6.0420909801       -2.1192847997        1.6719853005
 H          4.3181614098       -1.1371615699        2.7674957403
 H          3.4295756701       -2.4666872600        2.0223628702
 O          3.0054516297        0.5829587899        2.0087098702
 C          2.2309515796        1.6744088098        1.6514827601
 O          2.2969399494        2.6307065598        2.4506842602
 H         -1.0003561404        1.4120515794        1.6787980097
 C         -1.4862024103        1.6713750394        0.7453142296
 C         -0.7828819003        2.4130564795       -0.1967149102
 C         -1.4127442201        2.7314780895       -1.3919575203
 C         -2.7117910601        2.3173430093       -1.6312933905
 C         -3.4071648701        1.5785457392       -0.6927117106
 C         -2.7820751002        1.2459277692        0.5026389094
 N         -3.4735211902        0.4812715691        1.4622008993
 S         -4.2079218200       -0.9339578310        0.9490999892
 O         -5.4136732299       -0.6085770411        0.2292783390
 O         -4.3797895401       -1.7213712710        2.1499529991
 C         -3.0362867497       -1.7179004008       -0.1408307107
 C         -3.2003346496       -1.6349932308       -1.5079743107
 C         -2.2540128094       -2.2229197206       -2.3313862906
 C         -1.1689872694       -2.8818620405       -1.7768554405
 C         -1.0196162896       -2.9578844105       -0.4009657305
 C         -1.9571986997       -2.3649933007        0.4269597494
 H         -1.8767873399       -2.4079069007        1.5018915694
 H         -0.1737677195       -3.4702207504        0.0285311296
 H         -0.4341457392       -3.3399759804       -2.4201827804
 H         -2.3638005893       -2.1618474506       -3.4020697806
 H         -4.0631385996       -1.1230841209       -1.9008138908
 H         -2.9357513403        0.3080451991        2.2990515794
 H         -4.4191354000        1.2495613891       -0.8642448608
 H         -3.1888998600        2.5713203993       -2.5655861306
 H         -0.8808881401        3.2848879296       -2.1478198402
 C          0.6277037496        2.8241236297        0.1479822800
 H          0.5847894694        3.4092358296        1.0820138000
 C          1.2642612997        3.7271794998       -0.8987813499
 C          2.7518152997        3.7748922000       -1.0770775097
 C          1.8875071499        3.1845094599       -2.1483109399
 H          1.7622379100        3.7395158399       -3.0665371999
 H          1.8876765101        2.1144332699       -2.2807825299
 H          3.2151195896        4.7338016000       -1.2553777996
 H          3.3510470397        3.1086992700       -0.4730927197
 H          0.7437482996        4.6761001297       -0.9840155600
 O          0.6336938902        0.2610706297       -1.2753651601
