  62
        -98.94338968
 C          1.1180005615        1.2935665881       -0.1378167842
 C          1.9125597013        0.8666569409        0.9584936208
 C          2.8075646718       -0.2707881958        0.7152176761
 C          2.7993587953       -0.8625681908       -0.4926612890
 C          3.7092601170       -1.9820457609       -0.9066564793
 C          4.9975988858       -1.4405089678       -1.5424953951
 C          5.6817066099       -0.3492736593       -0.7187799861
 H          5.0404729131        0.5348516237       -0.6945152902
 H          6.5953953818       -0.0678334557       -1.2468579181
 C          6.0286311716       -0.7615852013        0.7187858538
 H          7.0453678796       -0.4312729063        0.9418340750
 H          6.0161337998       -1.8485666211        0.8063228861
 C          5.1190097239       -0.1556391567        1.7893796722
 H          5.0590858715        0.9265693785        1.6488428435
 H          5.5783988638       -0.3329143173        2.7654746505
 C          3.6914052479       -0.7141078428        1.8467483335
 H          3.2242526952       -0.3334493713        2.7596231458
 H          3.7272743917       -1.8037074564        1.9069478357
 H          4.7533429541       -1.0262526764       -2.5233965799
 H          5.6873147515       -2.2738075727       -1.6885101684
 H          3.1867273095       -2.5993713145       -1.6388353468
 H          3.9549379531       -2.5890405097       -0.0373346134
 O          1.9832561134       -0.4673603777       -1.4992455323
 C          1.1309743889        0.6193358247       -1.3593932345
 O          0.4600264939        0.8567591354       -2.3820360005
 O          1.8823283546        1.4252969785        2.0869754449
 C          0.2491538932        2.5193920612        0.0927313076
 C         -1.1490134281        2.1163983520        0.4805288315
 C         -1.7216507158        2.5477731315        1.6706635825
 C         -2.9950057561        2.1388804425        2.0315084104
 C         -3.7214248510        1.2907209054        1.2144192623
 C         -3.1540392892        0.8526740934        0.0250753562
 C         -1.8812342311        1.2649309775       -0.3367512911
 H         -1.4454806547        0.9175043541       -1.2620971376
 N         -3.8715886090       -0.0507628922       -0.7967935830
 S         -3.9466124355       -1.6090435606       -0.1868142122
 O         -4.5214858714       -2.4211864632       -1.2339356503
 O         -4.6618523139       -1.5739189945        1.0629183755
 C         -2.2512448240       -2.0893263738        0.0968270172
 C         -1.6040351378       -1.6320383206        1.2279667764
 C         -0.2758225587       -1.9741644190        1.4226398769
 C          0.3749628822       -2.7715556685        0.4942772327
 C         -0.2857130383       -3.2153824150       -0.6402379529
 C         -1.6095147270       -2.8641516422       -0.8479135322
 H         -2.1610508023       -3.1883417085       -1.7160347396
 H          0.2270692404       -3.8294189781       -1.3631180835
 H          1.4045953997       -3.0459731717        0.6579893882
 H          0.2492716475       -1.6113626818        2.2922325178
 H         -2.1433330886       -1.0281750748        1.9396413874
 H         -3.4998150995       -0.0934726720       -1.7366556435
 H         -4.7033505216        0.9417051049        1.4890038216
 H         -3.4251008859        2.4812278725        2.9603717473
 H         -1.1554303406        3.1948293789        2.3244562579
 H          0.7015986941        3.0173024899        0.9645682535
 C          0.2941394745        3.5062730200       -1.0669491685
 C         -0.8863056777        3.8481024428       -1.9216197408
 C         -0.3688055997        4.8454868599       -0.9319849800
 H          0.1480775246        5.7208039265       -1.2949392943
 H         -0.9598837682        5.0166379794       -0.0447429453
 H         -0.7081832700        4.0154370300       -2.9730936106
 H         -1.8303484959        3.3694973191       -1.7143029986
 H          1.2552458550        3.4917819768       -1.5713225233
