  62
        -98.94289829
 C         -2.6223124793       -1.2018700511        0.2327900995
 C         -2.7686270559       -0.3183370729       -0.8639443990
 C         -3.8328047788        0.6903216049       -0.7413128476
 C         -4.6004246989        0.7192515749        0.3624249804
 C         -5.6793439663        1.7255053922        0.6361343875
 C         -5.1283834105        2.9382150491        1.3992263816
 C         -3.8579579587        3.5284242281        0.7871614893
 H         -3.5802658340        4.3963106646        1.3891350185
 H         -3.0470032173        2.8019514214        0.8783183424
 C         -3.9975793102        3.9496706749       -0.6824128736
 H         -5.0522863165        4.0515961144       -0.9403801043
 H         -3.5363347256        4.9311654071       -0.8107440208
 C         -3.3217685370        3.0069407724       -1.6799913680
 H         -2.2885748602        2.8270095058       -1.3715041895
 H         -3.2903109890        3.5065057844       -2.6520815857
 C         -4.0072277008        1.6499909627       -1.8851509960
 H         -5.0662433925        1.8017373906       -2.1029249354
 H         -3.5440122228        1.1712692752       -2.7529476087
 H         -5.9055814168        3.7035890099        1.4375467771
 H         -4.9034871607        2.6300654957        2.4228346218
 H         -6.1190098717        2.0450025862       -0.3066810008
 H         -6.4500401810        1.2457682296        1.2417677309
 O         -4.4436484777       -0.1534539633        1.3889377289
 C         -3.4575198388       -1.1217207710        1.3535119819
 O         -3.4263807718       -1.8520973248        2.3637586661
 H         -0.0465717061       -0.5764801816       -1.1228657710
 C          0.4469054386       -0.9068435558       -0.2206050552
 C         -0.2095980522       -1.7869126967        0.6279127362
 C          0.4364474167       -2.1960192250        1.7886926846
 C          1.7060655508       -1.7342057098        2.0885422701
 C          2.3550378546       -0.8540126337        1.2412910382
 C          1.7172601225       -0.4366507764        0.0804871310
 N          2.3577599900        0.4757043365       -0.7775688225
 S          3.9095290205        0.1041574155       -1.3011476675
 O          4.0772374486        0.8271353004       -2.5428043447
 O          4.1224067606       -1.3239254940       -1.3551217178
 C          4.9647125161        0.8297249120       -0.0635060997
 C          5.8906179729        0.0462191036        0.5971071876
 C          6.7087585769        0.6343621086        1.5492426394
 C          6.5879396415        1.9884626266        1.8213184164
 C          5.6548710648        2.7621380094        1.1469321570
 C          4.8347862274        2.1805652302        0.1932987286
 H          4.1004778110        2.7465372544       -0.3553878652
 H          5.5640580115        3.8148882684        1.3610650898
 H          7.2249935266        2.4439609091        2.5629303516
 H          7.4351568343        0.0348618929        2.0739834112
 H          5.9447650989       -1.0034610344        0.3560210682
 H          1.7800376471        0.7580044535       -1.5569360521
 H          3.3433118585       -0.4900838943        1.4704710979
 H          2.1954288899       -2.0614446266        2.9931831171
 H         -0.0684886179       -2.8742130012        2.4613164937
 C         -1.5834959331       -2.3124287984        0.2837889778
 H         -1.9015139150       -2.9715220426        1.1025354836
 C         -1.5353406880       -3.1315030941       -0.9927855841
 C         -0.9821679540       -4.5223891822       -0.9425937577
 C         -2.4514470226       -4.3062423485       -1.1456677867
 H         -2.8754115252       -4.5055682475       -2.1184297026
 H         -3.1179085980       -4.5296602422       -0.3250564895
 H         -0.3916074533       -4.8716083502       -1.7757999320
 H         -0.6528988373       -4.8955083285        0.0154190986
 H         -1.3336590103       -2.5416104925       -1.8772208963
 O         -2.0604066729       -0.3456812393       -1.9076230608
