  62
        -98.92992922
 C          2.2301879249        0.2095175460        0.4342135180
 C          3.3452542738        0.7797804545       -0.2257486547
 C          4.4824115853       -0.1244887487       -0.4969666967
 C          4.4069722396       -1.4191555171       -0.1410035190
 C          5.3774333470       -2.5664394960       -0.3321758304
 C          6.8316447212       -2.3047539776       -0.7163924281
 C          7.6609354975       -1.6015937242        0.3575706486
 H          8.6453236204       -1.3814734254       -0.0612056150
 H          7.8017040176       -2.2904678921        1.1943342480
 C          7.0601040313       -0.3145512614        0.9172225214
 H          7.7510631315        0.0775380163        1.6685716581
 H          6.1229170096       -0.5402527820        1.4304663088
 C          6.8115680981        0.7907340032       -0.1072832029
 H          7.7330783268        0.9985123576       -0.6543911548
 H          6.5388981261        1.6944445199        0.4443516805
 C          5.6894947905        0.5136652508       -1.1228509147
 H          6.0488755890       -0.0822602258       -1.9581318249
 H          5.3539672787        1.4742978500       -1.5241315281
 H          6.8813250732       -1.7589142049       -1.6538120326
 H          7.2858107648       -3.2831620051       -0.8953815969
 H          4.9277494444       -3.2107034692       -1.0958704779
 H          5.3509579060       -3.1350721952        0.6028615171
 O          3.2950012421       -1.9315911005        0.4669510466
 C          2.2041423993       -1.1428467357        0.7783008298
 O          1.2846027268       -1.7532246596        1.3629225799
 O          3.4119700366        1.9810700366       -0.5889679284
 C          0.9934002068        1.0029584406        0.8204567408
 C         -0.0157314199        1.0307880555       -0.2992007973
 C          0.3542580878        1.3573839728       -1.6001592503
 C         -0.5906381464        1.3828170681       -2.6092584568
 C         -1.9154508432        1.0864677431       -2.3426483680
 C         -2.2980747591        0.7677138456       -1.0443465211
 C         -1.3459641977        0.7383137469       -0.0344648210
 H         -1.6489849089        0.4653335517        0.9651669980
 N         -3.6490358086        0.5215265819       -0.7461366112
 S         -4.0631828394       -0.5838584257        0.4595287938
 O         -3.8151783907        0.0168369028        1.7457605666
 O         -3.4325193315       -1.8602293735        0.2073154572
 C         -5.8206831359       -0.6910425890        0.1787394733
 C         -6.6244547488        0.3339751156        0.6413756719
 C         -7.9882211644        0.2750709799        0.4034052287
 C         -8.5229926495       -0.8015010244       -0.2888693532
 C         -7.7043180086       -1.8237577367       -0.7445666847
 C         -6.3388221288       -1.7701968543       -0.5114516829
 H         -5.6644797458       -2.5450410180       -0.8394678088
 H         -8.1231455453       -2.6611074267       -1.2790688724
 H         -9.5849772136       -0.8454462671       -0.4719794540
 H         -8.6282558534        1.0664856589        0.7585842190
 H         -6.1653650052        1.1447275729        1.1824507817
 H         -4.2081921130        0.3742468155       -1.5758504827
 H         -2.6504235266        1.1061118863       -3.1329397351
 H         -0.2915685160        1.6340955522       -3.6157967336
 H          1.3856918853        1.5973118682       -1.8079204992
 H          0.5386816769        0.4392588084        1.6520745885
 C          1.3203892385        2.3952906199        1.3466724349
 C          0.9843058321        3.6565175803        0.6154691551
 C          0.2161198258        3.2805769828        1.8443272883
 H          0.3747408951        3.8442239607        2.7513162131
 H         -0.7965098436        2.9265812747        1.7161486389
 H          1.6931523987        4.4682111577        0.6716931949
 H          0.4905495669        3.5755465308       -0.3397291012
 H          2.2430418554        2.4026229104        1.9181652591
