  62
        -98.94330799
 C          2.3396015091        0.5690823785        0.1264974225
 C          3.3420642432        0.2565020983        1.0789678145
 C          4.2756136616       -0.8141739272        0.7079321111
 C          4.1131928737       -1.4482928583       -0.4676775505
 C          5.0166080332       -2.5252760973       -0.9930486097
 C          6.1458955028       -1.9346210991       -1.8489456867
 C          6.8790016263       -0.7687119999       -1.1855172641
 H          7.6728978141       -0.4539621263       -1.8663381230
 H          6.1907337386        0.0735110424       -1.0837634336
 C          7.4828636790       -1.0973706826        0.1869842905
 H          8.4970032701       -0.6944982796        0.2286302611
 H          7.5588819389       -2.1783929848        0.3092719622
 C          6.7196431306       -0.5057298563        1.3735222353
 H          7.3437002068       -0.6097758514        2.2651007899
 H          6.5591582304        0.5629247586        1.2098829328
 C          5.3651773326       -1.1545177246        1.6855661320
 H          5.4856269793       -2.2366668363        1.7669828964
 H          5.0287406480       -0.7722888076        2.6537063724
 H          5.7178742014       -1.5790541496       -2.7890917896
 H          6.8568346543       -2.7302896644       -2.0788716929
 H          5.4339726451       -3.0822191014       -0.1564503628
 H          4.4220707932       -3.2023079842       -1.6086910220
 O          3.1215624844       -1.1430594639       -1.3416283136
 C          2.2146545367       -0.1267833234       -1.0759750292
 O          1.3738803119        0.0480659878       -1.9784706310
 H         -0.7956518051        1.4552789007       -1.2379116778
 C         -0.9840286046        1.0178079475       -0.2701105120
 C         -0.0010215325        1.0537829920        0.7062068280
 C         -0.2650934820        0.4631921034        1.9392163658
 C         -1.4803058154       -0.1473958372        2.1841385975
 C         -2.4551077969       -0.1916154814        1.2022302328
 C         -2.2003824236        0.3902163887       -0.0317666203
 N         -3.1743116822        0.3247400840       -1.0420053848
 S         -4.7439703086        0.7886810315       -0.6825928325
 O         -5.3272074060        1.1729338149       -1.9495676915
 O         -4.7755245620        1.7825193662        0.3656676033
 C         -5.5189174343       -0.7128866780       -0.1208820803
 C         -6.1505938234       -0.7445477012        1.1068782774
 C         -6.7562033432       -1.9215024429        1.5189780220
 C         -6.7203828718       -3.0394528655        0.6998322574
 C         -6.0841921250       -2.9904098867       -0.5317752641
 C         -5.4777025679       -1.8167678090       -0.9498795185
 H         -4.9752472702       -1.7370385078       -1.8995929024
 H         -6.0577753382       -3.8620243802       -1.1658902409
 H         -7.1908864476       -3.9547059648        1.0227691240
 H         -7.2515776943       -1.9616727363        2.4757836231
 H         -6.1480034616        0.1477434672        1.7124871694
 H         -2.8700217593        0.7071225033       -1.9252965547
 H         -3.4032898965       -0.6710931600        1.3831374081
 H         -1.6708988223       -0.5977478884        3.1464319171
 H          0.5016044624        0.4849624971        2.7012091455
 C          1.3529635124        1.6743379783        0.4662609478
 H          1.7055107869        2.0929837822        1.4187707953
 C          1.3479414071        2.7743958419       -0.5742931018
 C          0.7024100599        4.0872399950       -0.2489574135
 C          2.1939101960        3.9916518799       -0.3580045213
 H          2.6787391216        4.4402357588       -1.2121872247
 H          2.7766135621        4.0406622107        0.5501457196
 H          0.1605276628        4.6039843833       -1.0265950298
 H          0.2699491211        4.1985263906        0.7340213722
 H          1.2649809976        2.4065443727       -1.5898562976
 O          3.4502734925        0.8471675193        2.1866439318
