  62
        -98.94464729
 C         -1.9938976686        1.3408150485       -0.3557074030
 C         -2.6965920663        0.8380221709        0.7661537222
 C         -3.8894045063        0.0325040857        0.4645018360
 C         -4.2339993237       -0.1846938471       -0.8177197933
 C         -5.3920408754       -1.0286460827       -1.2638802826
 C         -4.9650828120       -2.4864853969       -1.4853289136
 C         -4.1634213218       -3.0785732230       -0.3258961114
 H         -3.9427221415       -4.1177773260       -0.5798273640
 H         -3.2057297956       -2.5578568566       -0.2493110039
 C         -4.8771751497       -3.0247676065        1.0321289461
 H         -5.9461019291       -2.8679383687        0.8827510315
 H         -4.7572740735       -3.9901741454        1.5282898932
 C         -4.3377722227       -1.9614767238        1.9908441955
 H         -4.7561932350       -2.1549167420        2.9821542308
 H         -3.2516089373       -2.0566939319        2.0709735641
 C         -4.6688963383       -0.5077900740        1.6300405751
 H         -5.7423080694       -0.4066031765        1.4576615054
 H         -4.3967767097        0.1158120795        2.4866204898
 H         -4.3495427841       -2.5346324079       -2.3867300961
 H         -5.8607381395       -3.0870406485       -1.6540165668
 H         -6.1796484493       -0.9798972742       -0.5146358363
 H         -5.7712205562       -0.6239366969       -2.2037751377
 O         -3.5257526325        0.3039178645       -1.8682496871
 C         -2.3839919148        1.0618005284       -1.6650327470
 O         -1.8089404178        1.4180935908       -2.7145874413
 H          0.1783127627       -0.1619938543       -0.9617850405
 C          0.6616951643        0.1379995100       -0.0395782994
 C          0.3079994036        1.3505064794        0.5416718208
 C          0.9455038624        1.7342153341        1.7129600469
 C          1.8856839088        0.9051482488        2.3023081910
 C          2.2202394985       -0.3087569205        1.7325576969
 C          1.6054482482       -0.6907598904        0.5457893902
 N          1.9615233694       -1.9085300256       -0.0584779243
 S          3.5920877328       -2.2766704215       -0.1561486339
 O          3.7237740222       -3.1085043879       -1.3319464481
 O          4.0289229110       -2.8695162472        1.0833978952
 C          4.4158202145       -0.7116849136       -0.3964751707
 C          4.0669368592        0.0480450050       -1.4955998063
 C          4.6725239394        1.2805643550       -1.6776193838
 C          5.6127151079        1.7299480355       -0.7627689287
 C          5.9572661126        0.9524341119        0.3316515311
 C          5.3526971585       -0.2801087564        0.5202025796
 H          5.5867118669       -0.9146969784        1.3593806610
 H          6.6900722731        1.3033028802        1.0401251434
 H          6.0787133425        2.6920036454       -0.9058424354
 H          4.4049879283        1.8859841980       -2.5288776534
 H          3.3346518538       -0.3289632105       -2.1919688823
 H          1.4920498205       -2.0855489457       -0.9340363182
 H          2.9378910343       -0.9714128185        2.1884705035
 H          2.3624515490        1.2083400027        3.2216853656
 H          0.6972984185        2.6755316612        2.1738072955
 C         -0.7428498615        2.1795381755       -0.1566801098
 H         -0.3729136720        2.4125087972       -1.1656218159
 C         -1.0745803992        3.4757384426        0.5507052700
 C         -0.1989183485        4.6766450858        0.3608149815
 C         -1.5618507973        4.6370438119       -0.2606554366
 H         -2.3379470930        5.2643059844        0.1515494022
 H         -1.6357235053        4.4998763078       -1.3299401053
 H         -0.0391673233        5.3368352973        1.1996763187
 H          0.6566614016        4.5729300553       -0.2890162444
 H         -1.5302014533        3.3189659482        1.5211515071
 O         -2.3511850663        1.0491972038        1.9570120855
