  62
        -98.93972157
 C         -2.7054098957       -0.6669764193        0.1495376337
 C         -2.8449635745        0.3693627947        1.1027366009
 C         -3.2607146632        1.6761328725        0.5770269111
 C         -3.4839131536        1.8120954746       -0.7432583020
 C         -3.8481857145        3.1001701772       -1.4219521554
 C         -2.5946605734        3.8497329039       -1.8952990429
 C         -1.5142512484        3.9861260929       -0.8223100804
 H         -1.1252597032        2.9938385855       -0.5814877979
 H         -0.6916664909        4.5556341014       -1.2599399928
 C         -1.9839677628        4.6742684197        0.4671839266
 H         -1.2287725706        5.4021266607        0.7709892656
 H         -2.9063481527        5.2243241940        0.2780879462
 C         -2.1933912642        3.7294748476        1.6521334852
 H         -1.3026003533        3.1110844485        1.7906163946
 H         -2.3126354299        4.3359325108        2.5539030010
 C         -3.4126368148        2.8029740009        1.5601600120
 H         -4.3055812316        3.3904686940        1.3380215914
 H         -3.5458845377        2.3315366022        2.5383585321
 H         -2.1681372079        3.3088439804       -2.7432116144
 H         -2.8947977164        4.8408311040       -2.2400236318
 H         -4.4704839487        2.8684269354       -2.2877900048
 H         -4.4177265029        3.7204342985       -0.7326681353
 O         -3.3478755490        0.7913157526       -1.6273540014
 C         -2.9391752819       -0.4676302562       -1.2114902175
 O         -2.8280205424       -1.3001539725       -2.1301263338
 O         -2.6216137897        0.2115516342        2.3344530549
 C         -2.2459085931       -2.0361225492        0.6168201457
 C         -0.9141583071       -2.3706423598       -0.0110692826
 C         -0.6425302578       -3.5771700146       -0.6407196291
 C          0.6038070186       -3.8102095961       -1.1975971175
 C          1.6015148840       -2.8553313201       -1.1398872051
 C          1.3462566178       -1.6493499657       -0.4983311296
 C          0.0998501948       -1.4227420247        0.0649800562
 H         -0.0996913289       -0.4839498019        0.5683399037
 N          2.3425231048       -0.6502517633       -0.4451733657
 S          3.8579298676       -1.0942868160        0.1594850821
 O          4.4993461154       -1.9619415107       -0.7943989232
 O          3.7261801575       -1.6177988515        1.5024418385
 C          4.6744028608        0.4881587849        0.1854070751
 C          4.7774802128        1.1843526824        1.3742831014
 C          5.3921749083        2.4268442378        1.3717837259
 C          5.8868314752        2.9495458278        0.1864997414
 C          5.7752794176        2.2382981756       -0.9992456849
 C          5.1631755559        0.9952032650       -1.0035265961
 H          5.0606078604        0.4036691220       -1.8981478945
 H          6.1630583938        2.6477185322       -1.9180281373
 H          6.3643380927        3.9166524705        0.1875016808
 H          5.4820720401        2.9809650786        2.2922566540
 H          4.3848535167        0.7363816157        2.2732575870
 H          2.0157275376        0.1610217932        0.0641618681
 H          2.5736181547       -3.0312343475       -1.5700789417
 H          0.7999021985       -4.7507177249       -1.6902455012
 H         -1.4065955491       -4.3344164671       -0.7022330792
 H         -2.0924294101       -1.9379494033        1.7023243576
 C         -3.3179314916       -3.0757731620        0.3709701864
 C         -3.4083386990       -4.2868863152        1.2490152341
 C         -4.4387766273       -3.2044828854        1.3570293551
 H         -5.4334747066       -3.3976079524        0.9844756913
 H         -4.4148771624       -2.5580657307        2.2223511646
 H         -3.6983886705       -5.2265421348        0.8036735249
 H         -2.6864379239       -4.3810637952        2.0462769558
 H         -3.5616832858       -3.1828589843       -0.6798571345
