  62
        -98.94443243
 C         -2.4205429817       -1.0498561611        0.0014845218
 C         -2.8904506275       -0.1936637273        1.0330719926
 C         -3.3753444750        1.1281881606        0.6220233414
 C         -3.3671616817        1.4508302532       -0.6835613328
 C         -3.7779155876        2.7810180058       -1.2433973708
 C         -2.5758679236        3.7288304568       -1.3576877932
 C         -1.7321610616        3.8181581105       -0.0856031720
 H         -1.2374305367        2.8577009274        0.0826256399
 H         -0.9407890151        4.5472680873       -0.2746548928
 C         -2.5148579692        4.2250756477        1.1711392999
 H         -1.9339726563        4.9731928782        1.7144914399
 H         -3.4574807000        4.6922312891        0.8834452921
 C         -2.7923935838        3.0813288774        2.1485978911
 H         -3.1373195582        3.5157591476        3.0906136822
 H         -1.8625319580        2.5446872328        2.3543002365
 C         -3.8471130891        2.0617283597        1.7005969714
 H         -4.0863372262        1.4297576939        2.5606952465
 H         -4.7555551969        2.5820870514        1.3911421498
 H         -2.9435848050        4.7218142629       -1.6237646224
 H         -1.9300436832        3.3764101662       -2.1659335371
 H         -4.5402171823        3.2194102031       -0.6022042961
 H         -4.1984590113        2.6214308303       -2.2378067137
 O         -2.9362286575        0.6001139898       -1.6468002006
 C         -2.4190194343       -0.6485602265       -1.3340344631
 O         -2.0151076148       -1.2757826546       -2.3363733504
 O         -2.9044196653       -0.5280189115        2.2477582270
 C         -1.8532682374       -2.3883883743        0.4498479401
 C         -0.3586185348       -2.2564529595        0.6200298875
 C          0.2490589922       -2.4293424705        1.8578348527
 C          1.6106523328       -2.2307458196        2.0101980829
 C          2.3890109941       -1.8347725628        0.9365309731
 C          1.7880438207       -1.6572534247       -0.3020076732
 C          0.4322881330       -1.8885286481       -0.4594956797
 H         -0.0239645139       -1.7361093602       -1.4269263520
 N          2.5657011776       -1.1686483965       -1.3861295393
 S          2.7249834604        0.5122144386       -1.3053044679
 O          1.5278323250        1.1325373930       -0.7801171647
 O          3.1395663074        0.9344034613       -2.6257517041
 C          4.0710946182        0.7203674079       -0.1607585262
 C          3.8227071389        1.2106316365        1.1059027048
 C          4.8804699268        1.3389959992        1.9927248712
 C          6.1594731454        0.9761127507        1.5987251487
 C          6.3921205875        0.4863578755        0.3218656473
 C          5.3392026269        0.3552151247       -0.5693613245
 H          5.4719856616       -0.0156927544       -1.5719546648
 H          7.3881754206        0.2058801340        0.0195551597
 H          6.9798725379        1.0757623114        2.2917646328
 H          4.7008649786        1.7184811359        2.9857529917
 H          2.8105195459        1.4750505494        1.3679322761
 H          2.1474804449       -1.3928584217       -2.2803040561
 H          3.4468513431       -1.6606290585        1.0480082457
 H          2.0677950527       -2.3705972599        2.9776198228
 H         -0.3595024545       -2.6974846371        2.7089690082
 H         -2.2893873114       -2.5698827482        1.4414755909
 C         -2.2083477018       -3.5527462298       -0.4514680717
 C         -2.1608789776       -4.9421522358        0.1078718643
 C         -3.4802915717       -4.3059331326       -0.2084866019
 H         -4.0371603357       -4.6612070907       -1.0623672279
 H         -4.1020321297       -3.9832877233        0.6138609847
 H         -1.8089631813       -5.7398488150       -0.5278509270
 H         -1.8897293687       -5.0539345492        1.1465861736
 H         -1.9051163788       -3.4118366638       -1.4805569761
