  62
        -98.94092762
 C         -1.7331317289       -1.0749186892       -0.0304181402
 C         -2.1616489193        0.1355721008       -0.6292875099
 C         -3.6176822894        0.2882374404       -0.7920583898
 C         -4.4402933590       -0.6928497700       -0.3816425601
 C         -5.9389828090       -0.6388812005       -0.4357986500
 C         -6.5186799592       -0.0671871811        0.8656891502
 C         -5.8560666796        1.2342527390        1.3178243705
 H         -6.3661692397        1.5600115386        2.2269523606
 H         -4.8170548996        1.0314668793        1.5875444504
 C         -5.8960211701        2.3622030193        0.2773950108
 H         -6.1828889004        3.2898059191        0.7772674011
 H         -6.6595881900        2.1488027292       -0.4715524592
 C         -4.5615966002        2.6285151799       -0.4220239691
 H         -3.7729725102        2.7530073500        0.3245852509
 H         -4.6461643605        3.5721461901       -0.9677677489
 C         -4.1084192198        1.5599427204       -1.4248396495
 H         -4.9136973798        1.3537200303       -2.1330590695
 H         -3.2578608300        1.9667424008       -1.9800827094
 H         -7.5884371193        0.0969770286        0.7243948703
 H         -6.3900554689       -0.8094532713        1.6568301500
 H         -6.2457968693       -0.0280154704       -1.2825063398
 H         -6.3153137287       -1.6536481606       -0.5758750703
 O         -3.9925735386       -1.8396649200        0.1900086196
 C         -2.6395166085       -2.0487556296        0.3988729895
 O         -2.3718955681       -3.1226287697        0.9730505092
 O         -1.3872547696        1.0504835612       -1.0107650797
 C         -0.2648507288       -1.3660873287        0.2315905796
 C          0.4173509908       -0.1458142887        0.7977233499
 C          0.0090967007        0.3307509209        2.0413361501
 C          0.5980392203        1.4487830009        2.5980192304
 C          1.6247697201        2.1022131414        1.9384070105
 C          2.0391748402        1.6347216919        0.6978329504
 C          1.4362652606        0.5178038519        0.1344152701
 H          1.7434044207        0.2081065522       -0.8495772300
 N          3.0765204100        2.2718706925        0.0038502505
 S          4.1354875302        1.3796079931       -0.9242479798
 O          5.3418975100        2.1794886635       -0.9620967196
 O          3.5578284803        1.0629894032       -2.2057404798
 C          4.4293098608       -0.1206441071       -0.0017213302
 C          4.2282592212       -1.3435235170       -0.6081086705
 C          4.4541354016       -2.5007515171        0.1203124192
 C          4.8734102116       -2.4148104273        1.4385835292
 C          5.0776322112       -1.1787031574        2.0325049095
 C          4.8557321308       -0.0191839273        1.3077894498
 H          5.0135977405        0.9552273427        1.7403351901
 H          5.4068799312       -1.1158426876        3.0571224795
 H          5.0430554720       -3.3168477174        2.0050068889
 H          4.2982564419       -3.4630168470       -0.3412299311
 H          3.8961682412       -1.3643072568       -1.6340318405
 H          3.5336161297        3.0225222925        0.4988859407
 H          2.0885668398        2.9752428515        2.3716400707
 H          0.2624891502        1.8122313405        3.5577066605
 H         -0.7903971291       -0.1826684796        2.5587618800
 H         -0.2668499185       -2.1419727090        1.0151596694
 C          0.4774814414       -1.9564086082       -0.9576112906
 C         -0.2243452983       -2.8086311381       -1.9709061508
 C          0.2833374912       -1.4525701079       -2.3547764604
 H          1.1464456911       -1.3830384574       -3.0016893804
 H         -0.4294865591       -0.6570321881       -2.5046421702
 H          0.2880774620       -3.6789527779       -2.3521965310
 H         -1.2907258683       -2.9433503185       -1.8613194108
 H          1.4838053015       -2.2622352379       -0.6869762207
