  62
        -98.93489596
 C         -2.6615514487       -0.5431254859       -0.2860925961
 C         -2.2259318448       -1.3638108107        0.7801848113
 C         -1.4283250362       -2.5554850143        0.4097609402
 C         -1.1465039544       -2.7855887264       -0.8829783813
 C         -0.2823963449       -3.8648139391       -1.4773164468
 C          1.1815879312       -3.3972637208       -1.5641730268
 C          2.0369888602       -3.7551541764       -0.3512894644
 H          2.1471441498       -4.8407317654       -0.2933401864
 H          3.0289849643       -3.3277233161       -0.5150110278
 C          1.4993772416       -3.2387789969        0.9846454845
 H          2.3253393455       -3.2286156996        1.6994742479
 H          1.1680880849       -2.2040456873        0.8705144725
 C          0.3598713453       -4.0968159340        1.5532073323
 H          0.3026408260       -5.0358726609        1.0031691198
 H          0.5870045354       -4.3571052313        2.5896845322
 C         -1.0125381538       -3.4178798004        1.5723921702
 H         -1.0684363068       -2.7533791641        2.4411250061
 H         -1.7845374654       -4.1827875834        1.7191838586
 H          1.6408257932       -3.8424253413       -2.4495533561
 H          1.1835644222       -2.3118072468       -1.6976382453
 H         -0.3692826712       -4.7904445762       -0.9159577411
 H         -0.6582634317       -4.0326236478       -2.4888591336
 O         -1.6037536715       -1.9782235217       -1.8817916871
 C         -2.3340264693       -0.8427092724       -1.6113826244
 O         -2.6613680672       -0.1874733910       -2.6233424249
 O         -2.4760278459       -1.1429128958        1.9941095515
 C         -3.3708091035        0.7949333701       -0.1209821857
 C         -2.3625951452        1.8860820530       -0.3914563437
 C         -2.6712183729        3.0008706015       -1.1607369733
 C         -1.6986870488        3.9417760328       -1.4523065110
 C         -0.3974291077        3.7715640100       -1.0150745860
 C         -0.0806120956        2.6603264183       -0.2417168635
 C         -1.0700157494        1.7499113518        0.0921285872
 H         -0.8125576489        0.8952976212        0.6999009040
 N          1.2302726717        2.4252330459        0.2086528312
 S          1.7164010788        0.8023083724        0.2692008587
 O          1.2464306158        0.0985366456       -0.9018182798
 O          1.3396918289        0.2648693201        1.5513064964
 C          3.4883738784        0.9909495726        0.2078723629
 C          4.1551845993        0.7847890456       -0.9845504802
 C          5.5296668512        0.9613241508       -1.0231484552
 C          6.2088481953        1.3426920086        0.1241279961
 C          5.5255481148        1.5458488500        1.3141699645
 C          4.1519802844        1.3686846897        1.3601460189
 H          3.5786185247        1.5032430025        2.2624658027
 H          6.0573552246        1.8391337719        2.2048027265
 H          7.2781284277        1.4794329926        0.0911762346
 H          6.0632938721        0.8002088813       -1.9459056259
 H          3.5846590959        0.4821506381       -1.8482389022
 H          1.9154483697        3.0043582108       -0.2578126924
 H          0.3690756522        4.4850073433       -1.2769406092
 H         -1.9495253782        4.8026224697       -2.0533613885
 H         -3.6698859410        3.1114272142       -1.5570062238
 H         -4.1231362216        0.8421564192       -0.9267343362
 C         -4.1039077611        0.9774690748        1.1967471059
 C         -3.5431904060        1.7753592897        2.3312786221
 C         -4.7024294186        2.3080575558        1.5467926581
 H         -5.6760162621        2.3256278905        2.0123864414
 H         -4.5138893620        3.1343948999        0.8786165542
 H         -3.7094422399        1.4060020696        3.3314508464
 H         -2.5762287131        2.2360252760        2.1961983234
 H         -4.6780861674        0.0983624253        1.4663585401
