  62
        -98.94053185
 C          2.2691641808        1.0780893492        0.3300189999
 C          2.5502061609        0.1209427892       -0.6756804502
 C          3.4825958209       -0.9538883208       -0.2959982602
 C          3.9518996708       -1.0150846008        0.9624198099
 C          4.9365505508       -2.0291489108        1.4663773199
 C          6.3791708508       -1.5274194408        1.3115776399
 C          6.6973650509       -0.9818189507       -0.0805425800
 H          6.1106959008       -0.0761069207       -0.2505196900
 H          7.7492714709       -0.6883303207       -0.0819753000
 C          6.4413597709       -1.9726788607       -1.2246687401
 H          6.3818867509       -2.9874335207       -0.8296039601
 H          7.2897851610       -1.9413904906       -1.9114784801
 C          5.1886077710       -1.6772232507       -2.0515098001
 H          5.1997285209       -0.6324994407       -2.3723496701
 H          5.2219851010       -2.2963220707       -2.9519758201
 C          3.8488865509       -1.9536700207       -1.3572371502
 H          3.0623365110       -1.8884797007       -2.1150070402
 H          3.8470297009       -2.9666510808       -0.9492735402
 H          7.0570405808       -2.3501160308        1.5459655499
 H          6.5477564908       -0.7298973808        2.0388894100
 H          4.7340534908       -2.2074655309        2.5238623898
 H          4.8033061409       -2.9608123508        0.9197618298
 O          3.6098047508       -0.1159263509        1.9198662399
 C          2.7832491908        0.9539436891        1.6246020199
 O          2.5818967907        1.7230227091        2.5855197999
 H         -0.0419859791        0.3249657391       -1.0707362902
 C         -0.6437323192        0.8895821091       -0.3733171902
 C         -0.0677373592        1.9497166291        0.3138494498
 C         -0.8509417093        2.6641940290        1.2120454698
 C         -2.1787493793        2.3270173390        1.4099762697
 C         -2.7513715692        1.2763828090        0.7157683197
 C         -1.9743746892        0.5500402291       -0.1774117203
 N         -2.5474835891       -0.5149437109       -0.8955216404
 S         -3.3902963891       -1.6798002010       -0.0274968904
 O         -2.8929735692       -1.7961441110        1.3245480496
 O         -3.3341996391       -2.8758327209       -0.8394035905
 C         -5.0627713691       -1.0676839510       -0.0160093205
 C         -5.7307461392       -0.9073924211        1.1821363795
 C         -7.0344665492       -0.4361025111        1.1645677095
 C         -7.6438472892       -0.1367107011       -0.0442454405
 C         -6.9601139991       -0.3062586410       -1.2391056905
 C         -5.6571861491       -0.7777894610       -1.2286593305
 H         -5.0920919191       -0.9263998309       -2.1336400905
 H         -7.4372801591       -0.0723152510       -2.1770912305
 H         -8.6576740092        0.2311708589       -0.0551245706
 H         -7.5674730992       -0.3040207912        2.0924189795
 H         -5.2139433692       -1.1474597811        2.0978139595
 H         -1.9033900691       -0.9499014509       -1.5412552004
 H         -3.7844301892        1.0089620490        0.8665363096
 H         -2.7752700793        2.8888083090        2.1123831497
 H         -0.4072024493        3.4765618590        1.7688727499
 C          1.3839340308        2.2944830591        0.1019598699
 H          1.6713935007        3.0051192691        0.8926675799
 C          1.6517361708        2.9740071392       -1.2355972401
 C          0.6573617208        3.0429551692       -2.3519716801
 C          0.9730479308        4.2725145392       -1.5583002401
 H          1.5503578208        5.0586247592       -2.0207288900
 H          0.2235260708        4.6223338591       -0.8643402501
 H         -0.3062469191        2.5797389492       -2.2109336802
 H          1.0350664309        2.9609929693       -3.3598431901
 H          2.6927995008        2.8857548692       -1.5296844701
 O          2.0598468109        0.1404914492       -1.8350778802
