  62
        -98.94009883
 C         -2.4964627459       -1.1697983550       -0.0340643998
 C         -2.5645650004        0.0088393761       -0.8152968893
 C         -3.9092927702        0.5726913252       -1.0040310262
 C         -4.9692410454       -0.0499931752       -0.4571028709
 C         -6.3820624277        0.4529435092       -0.5140294854
 C         -6.6999318817        1.3467650075        0.6932682763
 C         -5.6535404866        2.4305677670        0.9535377985
 H         -5.9973476616        3.0149469249        1.8097402269
 H         -4.7131031953        1.9569082512        1.2447989955
 C         -5.3996781396        3.3672577409       -0.2357895233
 H         -6.2256384315        3.2983422562       -0.9445700927
 H         -5.3697319332        4.3961657207        0.1287658103
 C         -4.0809963599        3.1164712237       -0.9696536764
 H         -3.2582236070        3.0915528715       -0.2503851309
 H         -3.9009240800        3.9581530127       -1.6437166767
 C         -4.0205511711        1.8354429920       -1.8111082982
 H         -4.8823162732        1.7920525383       -2.4801225342
 H         -3.1129373558        1.8808756850       -2.4202334370
 H         -7.6744846630        1.8108820804        0.5316972535
 H         -6.7668715785        0.7156468500        1.5824397307
 H         -6.5277350753        1.0074871870       -1.4388550243
 H         -7.0542619985       -0.4065499917       -0.5056853265
 O         -4.8652388253       -1.1948928107        0.2657968591
 C         -3.6307384615       -1.7741621621        0.5073945335
 O         -3.6736096098       -2.8054100570        1.2087863113
 H          1.3936321650       -0.9390161172       -0.4360575230
 C          1.0081139462       -0.4863837900        0.4616408158
 C         -0.2497010204       -0.8173659901        0.9374816406
 C         -0.7055670023       -0.2056361563        2.1033064280
 C          0.0757792248        0.7185478598        2.7681154832
 C          1.3319130764        1.0474305755        2.2892245170
 C          1.7953216022        0.4452515432        1.1257571721
 N          3.0497536988        0.7919328212        0.5999643859
 S          3.9554303841       -0.3608450735       -0.2321108024
 O          3.4559196171       -0.4800542435       -1.5782526301
 O          4.0274437701       -1.5850257984        0.5344981111
 C          5.5419029961        0.4535124450       -0.2526836404
 C          5.7414851290        1.4778159322       -1.1592931762
 C          6.9583508581        2.1405036696       -1.1640201411
 C          7.9500679993        1.7702232850       -0.2674731516
 C          7.7362599985        0.7387939816        0.6343489643
 C          6.5204219186        0.0729294434        0.6457605041
 H          6.3111877925       -0.7385956131        1.3239891941
 H          8.5105551771        0.4512901505        1.3272474767
 H          8.8964752749        2.2874720823       -0.2739999507
 H          7.1290056063        2.9412301873       -1.8654368325
 H          4.9447505065        1.7241381698       -1.8418878531
 H          3.6199506821        1.3134365847        1.2515149566
 H          1.9429497298        1.7716280647        2.8062447849
 H         -0.2926010000        1.1844993732        3.6698888697
 H         -1.6869339877       -0.4668068324        2.4773553044
 C         -1.1504283611       -1.8133645186        0.2479360127
 H         -1.3464957548       -2.6378009280        0.9495989034
 C         -0.5610100794       -2.3884460089       -1.0220944508
 C          0.4290315421       -3.5103434676       -0.9472939865
 C         -0.9578318327       -3.7665636470       -1.4541938111
 H         -1.0954881318       -3.9570580562       -2.5079040038
 H         -1.6438298411       -4.3069506600       -0.8179824245
 H          0.6914289098       -3.8802491845        0.0327210299
 H          1.2497320922       -3.5192960346       -1.6492974394
 H         -0.4240861264       -1.6416842253       -1.7964615712
 O         -1.5584894567        0.5659952960       -1.3271945135
