  62
        -98.93957595
 C         -1.0579606913       -1.7443354392        0.4388562205
 C         -1.4390713904       -0.5660030389        1.1236097303
 C         -2.7160562797        0.0505506823        0.7203735201
 C         -3.4266776601       -0.5166989771       -0.2699314700
 C         -4.7278767096       -0.0494776360       -0.8633462903
 C         -4.4833047685        0.8650774537       -2.0756098503
 C         -4.3293774172        2.3477785236       -1.7414989803
 H         -4.0511543866        2.8609895233       -2.6647972703
 H         -5.2956644069        2.7453508245       -1.4239778005
 C         -3.2881561971        2.6698751727       -0.6669581002
 H         -2.3844452576        2.0830489219       -0.8411138400
 H         -3.0189056661        3.7219027725       -0.7720013902
 C         -3.7975408276        2.4271527133        0.7610752597
 H         -3.6360170969        3.3234289432        1.3632227997
 H         -4.8746256677        2.2649793642        0.7371446996
 C         -3.1154085688        1.2722833327        1.5031727599
 H         -2.1819780585        1.6280237319        1.9500580801
 H         -3.7563163492        0.9543376533        2.3329654898
 H         -5.3212605785        0.7593234444       -2.7677793204
 H         -3.5878855487        0.5073788729       -2.5905128601
 H         -5.2477550003       -0.9470669455       -1.2049569103
 H         -5.3411614292        0.4430353146       -0.1149453004
 O         -3.0012630010       -1.6292072776       -0.9307101399
 C         -1.8151506716       -2.2655802986       -0.6098462596
 O         -1.5653103624       -3.2611400489       -1.3150615095
 H          1.4254437602       -0.1092808315        0.2828412508
 C          1.7499315596       -0.8734324918       -0.4085581491
 C          1.2532878584       -2.1647336014       -0.2726473891
 C          1.6680772477       -3.1387707318       -1.1710212190
 C          2.5570509982       -2.8187365327       -2.1825671588
 C          3.0628798394       -1.5375477231       -2.3038809088
 C          2.6567357501       -0.5558101727       -1.4061196089
 N          3.1400948213        0.7576335668       -1.5026271789
 S          3.5215851918        1.5989751566       -0.1046952689
 O          4.4568416628        2.6140965157       -0.5446864888
 O          3.9960995608        0.7132321762        0.9330327812
 C          2.0100016924        2.3977950480        0.3836572308
 C          1.3181893933        3.1215864585       -0.5674216394
 C          0.1680597238        3.7929150496       -0.1883700596
 C         -0.2653294465        3.7333039401        1.1275869703
 C          0.4404498927        3.0028151295        2.0697006505
 C          1.5912362321        2.3275974884        1.6963816407
 H          2.1612733115        1.7379130179        2.3966716808
 H          0.0984326725        2.9454711599        3.0905639604
 H         -1.1608885560        4.2580496209        1.4204502801
 H         -0.3868782355        4.3600113601       -0.9183113898
 H          1.6891828335        3.1470138782       -1.5786552993
 H          3.8304263716        0.9036681162       -2.2249376088
 H          3.7646112297       -1.2942884338       -3.0874662887
 H          2.8671337976       -3.5810847130       -2.8813253187
 H          1.2829840468       -4.1415075415       -1.0892439090
 C          0.2505930780       -2.4130360104        0.8268105907
 H          0.5984993983       -1.8755376007        1.7204108608
 C          0.0675569466       -3.8730840402        1.1786682508
 C          1.1452767858       -4.5829201412        1.9406738910
 C         -0.1555199940       -4.2573550299        2.6093395808
 H         -0.8408375048       -5.0632969193        2.8250253207
 H         -0.1683425334       -3.4653374599        3.3438821207
 H          1.3556310649       -5.6137161214        1.6996912711
 H          2.0170954063       -4.0095899119        2.2189105111
 H         -0.4756269338       -4.4306946498        0.4255904907
 O         -0.7427879201       -0.0494028794        2.0386343804
