  62
        -98.94175043
 C         -1.7044948796       -0.4799795468       -0.2844052661
 C         -2.8235001090       -1.2930224942        0.0338476534
 C         -4.1396855122       -0.7568665063       -0.3280519507
 C         -4.2274284458        0.4476505475       -0.9199572440
 C         -5.4938652583        1.1213190498       -1.3742422192
 C         -6.2244517145        1.8895148082       -0.2643576566
 C         -6.9271895347        1.0168093236        0.7764127596
 H         -7.5733302799        1.6742997593        1.3614710912
 H         -7.5698414078        0.2959874022        0.2698940296
 C         -5.9769420847        0.2810857048        1.7315782870
 H         -4.9879908694        0.7434323901        1.6882725395
 H         -6.3359311168        0.3898761597        2.7575000197
 C         -5.8362186972       -1.2162083529        1.4571245750
 H         -6.7951991167       -1.7112272127        1.6251343645
 H         -5.1151793097       -1.6286918452        2.1672925677
 C         -5.3527725363       -1.5562796756        0.0412223269
 H         -5.0751004793       -2.6129102063        0.0184656137
 H         -6.1524666011       -1.3888867306       -0.6800399030
 H         -5.5083757381        2.5471904510        0.2340073947
 H         -6.9755593152        2.5204457207       -0.7453292224
 H         -5.2059906368        1.8316611070       -2.1523873435
 H         -6.1663059779        0.3818788620       -1.8102637816
 O         -3.1343557788        1.2062529204       -1.1936052105
 C         -1.8503206437        0.7811449309       -0.8647116135
 O         -0.9659547573        1.6117745920       -1.1423939696
 O         -2.7250986111       -2.4154398991        0.5962461639
 C         -0.3315323172       -1.0121735478        0.0858276137
 C          0.4803491181        0.0470968905        0.7848470714
 C          0.0912121370        0.4631922945        2.0558188160
 C          0.8004371625        1.4392340235        2.7277470905
 C          1.9269005355        2.0055254941        2.1565179306
 C          2.3215617507        1.5995207293        0.8878949237
 C          1.5993861790        0.6266698311        0.2095497751
 H          1.8967657108        0.3663482719       -0.7916917077
 N          3.4568440704        2.1530039721        0.2826373652
 S          4.4127258406        1.2333712546       -0.7256779432
 O          5.7146582927        1.8639859979       -0.6563398874
 O          3.8366816015        1.1393145117       -2.0431881182
 C          4.4828230482       -0.3850248854        0.0252193463
 C          4.1567952147       -1.4969022895       -0.7237291678
 C          4.2107477965       -2.7478435857       -0.1294472872
 C          4.5859977815       -2.8640584895        1.1997427528
 C          4.9173888359       -1.7380993039        1.9378912044
 C          4.8682855528       -0.4859164980        1.3474341838
 H          5.1275781750        0.4060427105        1.8937863986
 H          5.2114493476       -1.8324454742        2.9707330829
 H          4.6210677158       -3.8380582867        1.6616490054
 H          3.9556844227       -3.6245313711       -0.7036446749
 H          3.8628488743       -1.3598914252       -1.7523089645
 H          3.9925504502        2.7867781993        0.8558240532
 H          2.4853346982        2.7666063925        2.6798253554
 H          0.4810898498        1.7578995175        3.7085508783
 H         -0.7862618602        0.0176677277        2.5044745487
 H         -0.5408172644       -1.8135384948        0.8141773822
 C          0.4200167282       -1.6629977116       -1.0653534650
 C         -0.3075295936       -2.3832335430       -2.1594982122
 C          0.4113795198       -1.1023836519       -2.4544481688
 H          1.3255551259       -1.1382171475       -3.0298912993
 H         -0.1699662230       -0.2111006822       -2.6331393208
 H          0.1086256317       -3.3064991691       -2.5331970503
 H         -1.3874908198       -2.3670812764       -2.1378632499
 H          1.3511969542       -2.1101517771       -0.7298751413
