  62
        -98.93472804
 C          2.3141310973        0.7492217228       -0.0971757473
 C          3.5344092653        1.0430135893        0.5529579577
 C          4.7503138809        0.4416322829       -0.0212048212
 C          4.6466031238       -0.3445372457       -1.1092525078
 C          5.7045932209       -1.0535752559       -1.9290542969
 C          7.1190373935       -1.2416010478       -1.3862434932
 C          7.2237730952       -2.1754348796       -0.1810698284
 H          8.2558755970       -2.1571502890        0.1756996161
 H          7.0032798775       -3.1939699681       -0.5102827806
 C          6.2901529354       -1.8562825884        0.9839207580
 H          6.4708123714       -2.5955077222        1.7691083171
 H          5.2522377633       -1.9740693415        0.6654086662
 C          6.4657211812       -0.4703794191        1.6018854332
 H          7.5088755480       -0.3249400814        1.8888200919
 H          5.8607785829       -0.4373095809        2.5120783628
 C          6.0306140541        0.7104042476        0.7160330164
 H          6.8185827704        0.9993309758        0.0248809211
 H          5.8349345874        1.5670583681        1.3674778903
 H          7.5677450346       -0.2785366764       -1.1616731164
 H          7.7057730391       -1.6826420706       -2.1966532954
 H          5.7671577089       -0.5017138985       -2.8734646705
 H          5.2816487498       -2.0331294710       -2.1733361777
 O          3.4438765027       -0.5922424346       -1.7074996608
 C          2.2559912410       -0.0721936292       -1.2210047525
 O          1.2465933918       -0.4106004027       -1.8675130735
 O          3.6086956794        1.7792357453        1.5737489604
 C          1.0256446310        1.3289462117        0.4566959356
 C          0.0902406570        0.2124530468        0.8496183010
 C          0.5452109861       -0.7542926646        1.7441399010
 C         -0.2702580904       -1.7991835834        2.1306667070
 C         -1.5618153979       -1.8976169492        1.6427519694
 C         -2.0247227363       -0.9406003542        0.7483104582
 C         -1.2010814802        0.1080512405        0.3601538467
 H         -1.5878806794        0.8347350430       -0.3340440594
 N         -3.3193056626       -1.0327298602        0.2134486527
 S         -4.1704038712        0.3843248591       -0.1222438619
 O         -3.7628320489        0.8915996587       -1.4079618960
 O         -4.0636245682        1.3015749415        0.9903238017
 C         -5.8282278658       -0.2650611707       -0.2304330179
 C         -6.6517789241       -0.2130710087        0.8784416024
 C         -7.9261233095       -0.7515559770        0.7928995666
 C         -8.3519415220       -1.3325714635       -0.3921032918
 C         -7.5147274484       -1.3758666304       -1.4971732996
 C         -6.2399384000       -0.8380771022       -1.4189164954
 H         -5.5576467721       -0.8404225113       -2.2531127778
 H         -7.8501091860       -1.8252180888       -2.4179547530
 H         -9.3436581122       -1.7516604696       -0.4561548817
 H         -8.5808001937       -0.7161011226        1.6487213918
 H         -6.2812831200        0.2562208932        1.7756163794
 H         -3.8960600298       -1.7120271377        0.6904068480
 H         -2.2010171872       -2.7135257879        1.9441688750
 H          0.0982603841       -2.5409770166        2.8233623299
 H          1.5528511319       -0.6729257730        2.1292769225
 H          1.3156871787        1.8682016481        1.3711162853
 C          0.4195422785        2.3167979806       -0.5163781941
 C         -0.5075469954        3.3843924858       -0.0200161100
 C          0.8694861706        3.7454084981       -0.4879132444
 H          0.9753567583        4.2713065790       -1.4248208836
 H          1.6058560575        4.0185816103        0.2537229255
 H         -1.3545082450        3.6549805840       -0.6331341423
 H         -0.7124311944        3.4138749522        1.0397514233
 H          0.2133547766        1.8766417184       -1.4863257341
