  62
        -98.93751668
 C          1.7926351433        0.1926998220       -0.2920715322
 C          2.9478078864        0.4541895745       -1.0610682207
 C          4.2427841859        0.4227401838       -0.3535172204
 C          4.2504487207        0.1650196153        0.9678982379
 C          5.4383580555        0.0482261318        1.8856169023
 C          6.1895203947       -1.2823875399        1.7166380679
 C          6.4137151578       -1.7149356402        0.2700698670
 H          6.8515346818       -2.7165046552        0.2868674139
 H          5.4489944112       -1.7919181599       -0.2345962133
 C          7.3412305730       -0.8140982931       -0.5418505506
 H          8.3171111941       -0.7707502759       -0.0529791001
 H          7.4798971463       -1.2865504543       -1.5177213490
 C          6.8501419417        0.6164602707       -0.7733130465
 H          6.9921030751        1.2285982565        0.1133391080
 H          7.4782796026        1.0533822952       -1.5552834934
 C          5.4094778346        0.7243562777       -1.2632627245
 H          5.2804044941        0.0818510291       -2.1418390494
 H          5.2414186790        1.7450607476       -1.6283318735
 H          7.1499899223       -1.2036569642        2.2286964749
 H          5.6065660331       -2.0635315247        2.2104281344
 H          5.0519327381        0.1018579831        2.9057791530
 H          6.1066567312        0.8918373313        1.7403206996
 O          3.1066176274       -0.0759932286        1.6709434570
 C          1.8589709976       -0.0692953267        1.0757521121
 O          0.9130861357       -0.3032584904        1.8510148986
 O          2.9072468657        0.7068234276       -2.2967126795
 C          0.4346189382        0.2100019170       -0.9673893054
 C         -0.4617037817        1.2426616672       -0.3298480414
 C          0.0540445526        2.5045818713       -0.0436967864
 C         -0.7336539128        3.4743770798        0.5438045554
 C         -2.0598402131        3.2143862172        0.8422767147
 C         -2.5897412773        1.9652859774        0.5471722548
 C         -1.7913671885        0.9882000466       -0.0330468935
 H         -2.2230975455        0.0264668053       -0.2536491937
 N         -3.9259186318        1.6649707868        0.8477975764
 S         -4.8462658750        0.7693411376       -0.2227524737
 O         -4.4725275671        1.0274906131       -1.5936997759
 O         -6.2162430722        1.0801001509        0.1281611415
 C         -4.5235042766       -0.9313634278        0.1929491485
 C         -4.3520267040       -1.2826685035        1.5170782552
 C         -4.1450162292       -2.6157854769        1.8334207537
 C         -4.1229556126       -3.5712518065        0.8287408593
 C         -4.3041505882       -3.2032758979       -0.4953079901
 C         -4.5066043073       -1.8706732992       -0.8190711249
 H         -4.6395462440       -1.5386772084       -1.8365341401
 H         -4.2866581778       -3.9475947337       -1.2757264396
 H         -3.9619586811       -4.6080584171        1.0788251374
 H         -3.9997598197       -2.9048579453        2.8619299669
 H         -4.3703163528       -0.5160219045        2.2734121554
 H         -4.4543291323        2.4237549662        1.2527461799
 H         -2.6780389523        3.9712095710        1.3009818107
 H         -0.3151624931        4.4444995642        0.7666186071
 H          1.0881751286        2.7126407819       -0.2828832828
 H          0.6265696641        0.5222747316       -2.0053913905
 C         -0.1599541141       -1.1828752499       -0.9800340977
 C         -1.0865381578       -1.6041680899       -2.0798547835
 C          0.3044179001       -2.1577686399       -2.0188090139
 H          0.4368414343       -3.1906204110       -1.7343061595
 H          1.0291653271       -1.8060169681       -2.7385888551
 H         -1.9090268878       -2.2584202244       -1.8334680518
 H         -1.3161949866       -0.8791114082       -2.8463883271
 H         -0.3441631279       -1.5635718332        0.0186075843
