  62
        -98.93945220
 C          2.2377895958        0.8597641532       -0.0438270051
 C          3.2462905639        0.6826079849        0.9344573796
 C          4.1229042131       -0.4912734716        0.7839730079
 C          3.9181743845       -1.3381677007       -0.2421076525
 C          4.6081663997       -2.6320414368       -0.6215072251
 C          5.9352447645       -3.0274759737        0.0207166251
 C          7.1196525063       -2.1410669160       -0.3635796393
 H          7.9829002013       -2.4474805684        0.2310514014
 H          7.3594103408       -2.3198909534       -1.4147982507
 C          6.9034161265       -0.6398589535       -0.1901074444
 H          7.8161407739       -0.1314877295       -0.5124853704
 H          6.0998572788       -0.3064939815       -0.8500116334
 C          6.5969200517       -0.1839562359        1.2349087254
 H          6.6211604665        0.9089974763        1.2429092375
 H          7.3765881325       -0.5405415351        1.9106756161
 C          5.2302938126       -0.6202240173        1.7902945132
 H          5.2698834149       -1.6304406491        2.1905258528
 H          4.9720029332        0.0493289557        2.6157911198
 H          5.8299251735       -3.0787302265        1.1003465887
 H          6.1567879357       -4.0413519036       -0.3235969632
 H          3.8771171926       -3.4241424187       -0.4240633529
 H          4.7331227801       -2.5953284654       -1.7085096823
 O          2.9172099632       -1.1382155607       -1.1488757986
 C          2.0621860489       -0.0501331109       -1.0843206743
 O          1.2203776190       -0.0168126589       -2.0034114635
 H         -0.8275356427        1.4468705296       -1.5138494149
 C         -1.0286077837        1.2656167603       -0.4699210345
 C         -0.0564319934        1.5439250269        0.4779554644
 C         -0.3295473519        1.2655194506        1.8144946494
 C         -1.5461475093        0.7271133305        2.1885921578
 C         -2.5122126640        0.4444729967        1.2381191870
 C         -2.2419722926        0.7011577660       -0.0986938531
 N         -3.2095913907        0.4030779075       -1.0741237596
 S         -3.9520551802       -1.1014848435       -1.0154023414
 O         -3.1020287928       -2.1016698890       -0.4112553351
 O         -4.3910937915       -1.3607439329       -2.3695741677
 C         -5.3843143884       -0.8182839099        0.0066199683
 C         -6.2231391374        0.2287112225       -0.3222915566
 C         -7.3463301504        0.4563282510        0.4565876794
 C         -7.6127648716       -0.3638374992        1.5429312433
 C         -6.7633858120       -1.4133503415        1.8576628593
 C         -5.6372463932       -1.6456841851        1.0831187225
 H         -4.9446343995       -2.4452209423        1.2935934808
 H         -6.9718251170       -2.0504615046        2.7021444075
 H         -8.4873961474       -0.1841333917        2.1479202709
 H         -8.0090730434        1.2715752603        0.2150066393
 H         -5.9814791060        0.8407508841       -1.1750173003
 H         -2.9005721006        0.6053173830       -2.0145126097
 H         -3.4580906219        0.0118776248        1.5204051787
 H         -1.7451914290        0.5208151136        3.2292473184
 H          0.4334666048        1.4631740167        2.5543365518
 C          1.3096648615        2.0558394222        0.0945176507
 H          1.7069639556        2.6337346222        0.9395508125
 C          1.3123970196        2.9330761297       -1.1395698639
 C          0.7265862536        4.3101586559       -1.0580378736
 C          2.2091002763        4.1324920629       -1.1829696434
 H          2.6832816161        4.3861109169       -2.1193217853
 H          2.8230826397        4.3287600041       -0.3163303374
 H          0.1805559122        4.6899551469       -1.9079505555
 H          0.3322850190        4.6254559845       -0.1039905264
 H          1.1850509657        2.3803393994       -2.0623827891
 O          3.4073073343        1.4732867801        1.9017925296
