  62
        -98.93293858
 C         -1.4288557134       -1.7687337281       -0.1862736553
 C         -2.5679880290       -1.1810380936        0.4100907102
 C         -3.0545407725        0.0570561184       -0.2077079282
 C         -2.4368562891        0.5415276357       -1.2996273324
 C         -2.7980857177        1.7972460955       -2.0452045485
 C         -2.5348394252        3.1042394607       -1.2707443178
 C         -3.7670836108        3.6607007255       -0.5462165459
 H         -3.7733302532        4.7477896005       -0.6493682141
 H         -4.6644836772        3.2923488767       -1.0456625623
 C         -3.8563868222        3.3548067552        0.9521737371
 H         -3.1872695119        4.0282632827        1.4932537098
 H         -4.8769925339        3.5693800117        1.2782637367
 C         -3.4906747312        1.9296927432        1.3689444531
 H         -2.4043456810        1.8072941670        1.3336281145
 H         -3.7803674268        1.7955223414        2.4139210183
 C         -4.1294940167        0.8179487894        0.5115843494
 H         -4.8479551604        1.2363591090       -0.1918201256
 H         -4.6481429188        0.1038146378        1.1548147319
 H         -1.7153979363        2.9432297522       -0.5683254197
 H         -2.1993811239        3.8475329040       -1.9961623897
 H         -3.8482768033        1.7495891643       -2.3411952182
 H         -2.1900709036        1.7889871423       -2.9519077978
 O         -1.3847702622       -0.0891916552       -1.8825113232
 C         -0.8120085257       -1.2113161845       -1.3051305152
 O          0.2196083893       -1.6079345603       -1.8799268183
 O         -3.1394203517       -1.6635293272        1.4273949060
 C         -0.7609134489       -2.9515879987        0.5080254715
 C          0.6724686789       -2.5464404035        0.7652529398
 C          1.8406542796       -3.2044235592        0.4050783066
 C          3.0810693986       -2.6398257392        0.6631923383
 C          3.1955628375       -1.3960193908        1.2521206499
 C          2.0348114473       -0.7289319706        1.6265481521
 C          0.8041104845       -1.3224394864        1.4215242578
 H         -0.0815698937       -0.7857234283        1.7303647611
 N          2.0621491172        0.5680987135        2.1863205900
 S          1.4275597368        1.7879128717        1.2234614915
 O          1.5794297076        3.0009520799        1.9985878786
 O          0.0876171904        1.4541793256        0.8184621246
 C          2.5265727587        1.8477129156       -0.1803303826
 C          2.3983418843        0.9072529895       -1.1826245277
 C          3.3103994529        0.9197345691       -2.2274507741
 C          4.3272364713        1.8614367806       -2.2515546132
 C          4.4417430663        2.7992423491       -1.2359511381
 C          3.5374872652        2.7902702322       -0.1868122705
 H          3.5838678496        3.4996830914        0.6237751029
 H          5.2316553488        3.5326308415       -1.2571930406
 H          5.0328978879        1.8638672049       -3.0672640783
 H          3.2127365011        0.1861559904       -3.0116860907
 H          1.5984186528        0.1840141006       -1.1497358325
 H          2.9781162882        0.8526684138        2.5071310847
 H          4.1618466129       -0.9426492052        1.4143961417
 H          3.9727417645       -3.1728208903        0.3700456017
 H          1.8128897818       -4.1524457822       -0.1000719417
 H         -1.2555632110       -3.0084438777        1.4932435895
 C         -1.1324235311       -4.2346842582       -0.2166691763
 C         -0.4076144512       -4.8101054634       -1.3923914645
 C         -0.4210703587       -5.5480386456       -0.0852736369
 H         -1.0292153353       -6.4382572830       -0.0182740306
 H          0.4758881012       -5.5957019055        0.5096127094
 H         -1.0040771285       -5.2017040419       -2.2038831222
 H          0.4869223575       -4.3108695686       -1.7261643720
 H         -2.2178937901       -4.2985075119       -0.2633132712
