  62
        -98.94483978
 C          1.9310639877        0.2328159354        0.0947821883
 C          2.9897850035        1.0031456722        0.6345544455
 C          4.2777610321        0.3147318333        0.7707058558
 C          4.3805971330       -0.9814989063        0.4250401754
 C          5.6189622817       -1.8297666856        0.5307138836
 C          6.5735390635       -1.6916875822       -0.6632565353
 C          7.3461411421       -0.3736285469       -0.7289334721
 H          7.8388436681       -0.1950539276        0.2273082884
 H          8.1285524283       -0.4983575984       -1.4801974714
 C          6.4904423270        0.8440299137       -1.1052219846
 H          7.0089299842        1.4323359319       -1.8657220359
 H          5.5509241037        0.5060261013       -1.5486566450
 C          6.1778763577        1.7837135966        0.0593920154
 H          7.1036363778        2.2313902758        0.4274620561
 H          5.5389344036        2.5885162301       -0.3127985474
 C          5.4578887477        1.1129733279        1.2367239460
 H          5.0874505884        1.8956217444        1.9032064634
 H          6.1510854707        0.4804337437        1.7906688338
 H          7.2958829355       -2.5087561565       -0.5989321676
 H          6.0018610459       -1.8259407416       -1.5845454262
 H          6.1503477394       -1.5905453853        1.4522501315
 H          5.2807290863       -2.8669105126        0.5829281872
 O          3.3300185764       -1.6969008075       -0.0577902896
 C          2.0883290693       -1.1078728095       -0.2566664998
 O          1.2325766906       -1.8747929746       -0.7371549144
 O          2.8623194558        2.2053183425        0.9893258337
 C          0.5780766986        0.8957224345       -0.1026319551
 C         -0.4541771174        0.1778804134        0.7294212550
 C         -0.3224541624        0.2104134656        2.1165140044
 C         -1.2128876179       -0.4649029187        2.9269229433
 C         -2.2598497986       -1.1809005419        2.3718444921
 C         -2.4007740627       -1.2209956642        0.9903419914
 C         -1.5044889813       -0.5371333846        0.1778269817
 H         -1.6251978370       -0.6054063718       -0.8895117984
 N         -3.4384507711       -1.9645662959        0.4067412736
 S         -4.3465519049       -1.3574301842       -0.8556203642
 O         -5.4726837612       -2.2595481655       -0.9544165524
 O         -3.5402386773       -1.2098725160       -2.0394635857
 C         -4.9018660887        0.2356042087       -0.2769172229
 C         -6.0464531630        0.2908607514        0.4948965930
 C         -6.4562151423        1.5133147399        1.0013264199
 C         -5.7126031402        2.6534868563        0.7362098275
 C         -4.5655575897        2.5808287821       -0.0387856919
 C         -4.1521418374        1.3612671058       -0.5519294166
 H         -3.2682912955        1.2682768411       -1.1607703101
 H         -3.9891707928        3.4682348543       -0.2464279715
 H         -6.0296714042        3.6049909559        1.1329817608
 H         -7.3504005523        1.5735400096        1.6005469406
 H         -6.5998897182       -0.6179862215        0.6673551028
 H         -4.0277750087       -2.4483076784        1.0682494366
 H         -2.9529456253       -1.7172184084        3.0020897145
 H         -1.0950350953       -0.4340372296        3.9995570007
 H          0.4997691935        0.7653911106        2.5471730463
 H          0.6960880166        1.9128526685        0.2984913363
 C          0.2371122084        0.9921265425       -1.5738502601
 C         -0.6928755672        2.0635971514       -2.0561140003
 C          0.7711675573        2.1461247158       -2.3662709953
 H          1.0968364405        1.9682526392       -3.3802501119
 H          1.3655538096        2.8777390216       -1.8385485229
 H         -1.3753603553        1.8291087340       -2.8598626257
 H         -1.0880616475        2.7471671648       -1.3196887598
 H          0.2033505860        0.0271482745       -2.0673894687
