  62
        -98.94460503
 C          1.2788228791        1.4872050201        0.3679446602
 C          1.7860346494        0.5274325901        1.2799644601
 C          2.9154588501       -0.2813955590        0.8114444301
 C          3.3777368402       -0.1152366984       -0.4404354898
 C          4.5270223008       -0.8568000374       -1.0664793898
 C          4.1381592618       -2.2257437975       -1.6410033903
 C          3.8775367723       -3.3177165280       -0.6026368807
 H          3.8492931130       -4.2677418578       -1.1401465610
 H          4.7142769021       -3.3624264077        0.0958384995
 C          2.5632570720       -3.1582645991        0.1745541391
 H          1.8890506117       -2.4903610093       -0.3685892109
 H          2.0555764026       -4.1247875694        0.2294378586
 C          2.7296426613       -2.6558277194        1.6091554593
 H          3.2631518717       -3.4059277293        2.1980539491
 H          1.7337474712       -2.5350683602        2.0434340291
 C          3.4724752105       -1.3198373290        1.7380921598
 H          3.3439265200       -0.9559487294        2.7607425199
 H          4.5361560206       -1.4639052583        1.5488779500
 H          3.2501287719       -2.1039515379       -2.2664642205
 H          4.9574560322       -2.5544690968       -2.2849873802
 H          4.8929731406       -0.2311798070       -1.8835723595
 H          5.3279325907       -0.9802554472       -0.3366760096
 O          2.8405822099        0.7869999816       -1.3018923396
 C          1.7619897093        1.5846710608       -0.9381051896
 O          1.3504840090        2.3186795808       -1.8559713395
 O          1.3108095593        0.3515271995        2.4339786299
 C          0.0761956385        2.3025835592        0.8060901102
 C         -1.0434150112        2.1612079388       -0.1964813001
 C         -1.8473747618        3.2076643485       -0.6283523299
 C         -2.8752461214        2.9718603981       -1.5262053702
 C         -3.1364854905        1.6982335781       -1.9971487707
 C         -2.3333612100        0.6444191385       -1.5742299908
 C         -1.3036985003        0.8868716588       -0.6823063305
 H         -0.6630772499        0.0710533891       -0.3876122206
 N         -2.5434603891       -0.6628364815       -2.0319027013
 S         -2.0883054585       -1.9719123015       -1.1042383216
 O         -0.6551746984       -2.1268686406       -1.1147778513
 O         -2.8445604577       -3.0754977118       -1.6577811021
 C         -2.6798246991       -1.6062376424        0.5391857884
 C         -4.0449116292       -1.4809211233        0.7121907381
 C         -4.5366778597       -1.1539778440        1.9648671781
 C         -3.6589071800       -0.9523080438        3.0196531984
 C         -2.2925197399       -1.0898988929        2.8330291886
 C         -1.7962802294       -1.4224370922        1.5823695186
 H         -0.7360367493       -1.5264994515        1.4093525788
 H         -1.6007388302       -0.9281995927        3.6446108288
 H         -4.0400855704       -0.6877750144        3.9933234783
 H         -5.5993666198       -1.0514967847        2.1142439679
 H         -4.6968328489       -1.6514068535       -0.1289925721
 H         -3.3929772089       -0.8185352719       -2.5520786215
 H         -3.9387360303        1.5200862078       -2.6963878009
 H         -3.4866477719        3.7953892178       -1.8625803301
 H         -1.6601502125        4.2103102685       -0.2811199896
 H         -0.2568406714        1.8021892287        1.7326379300
 C          0.3796632675        3.7443061193        1.1869657208
 C          1.7766701671        4.1936439300        1.4919142712
 C          1.0830842171        4.6880733800        0.2597800912
 H          0.7589716965        5.7183065498        0.2342756815
 H          1.3973864776        4.3014582405       -0.6965296588
 H          1.9273602865        4.8794725499        2.3122747015
 H          2.5728454076        3.4727191506        1.3722263912
 H         -0.3999334829        4.1716610186        1.8099755707
