  62
        -98.94463912
 C          0.7881185213        1.3586176099        0.2982706803
 C          1.1522451708        0.4523578795       -0.7277140296
 C          2.2662238406       -0.4532748307       -0.4065374897
 C          2.7777047309       -0.4823568706        0.8358562401
 C          3.8986780008       -1.3626913908        1.3173252800
 C          5.2968901809       -0.8026099313        1.0203871195
 C          5.7225046005       -0.8570198217       -0.4475730706
 H          6.7921783005       -0.6402629721       -0.4790144610
 H          5.5855801001       -1.8694642418       -0.8285537304
 C          4.9917277605        0.1406596583       -1.3574095807
 H          4.5171699509        0.9119437285       -0.7464556907
 H          5.7159847905        0.6444366979       -2.0014346410
 C          3.9358425300       -0.4863073416       -2.2686771802
 H          3.4522260501        0.3138891084       -2.8350134203
 H          4.4189892796       -1.1574308120       -2.9824854402
 C          2.8450768800       -1.2673227511       -1.5238495197
 H          3.2528347399       -2.2051032112       -1.1476503096
 H          2.0387183998       -1.4899840111       -2.2271265594
 H          5.3422109513        0.2299814588        1.3737950092
 H          6.0127851009       -1.3853124613        1.6046077894
 H          3.8060801704       -2.3562252309        0.8787904203
 H          3.7862933811       -1.4453785905        2.4001283301
 O          2.3010569815        0.3057241398        1.8347916401
 C          1.3480989117        1.2750250900        1.5771487601
 O          1.0763515122        1.9954538303        2.5583304900
 O          0.6070960804        0.3881193494       -1.8607072994
 C         -0.2166993884        2.4849752401        0.1156507003
 C         -1.6258364584        2.0392935206        0.4200102808
 C         -2.3963634780        2.7361109411        1.3437493409
 C         -3.6910040980        2.3391308015        1.6238618913
 C         -4.2309591285        1.2280238015        1.0033622718
 C         -3.4656592790        0.5201427611        0.0817923217
 C         -2.1753500589        0.9354751306       -0.2176326088
 H         -1.5995148993        0.3926864003       -0.9519432788
 N         -3.9918810995       -0.6209853689       -0.5354907179
 S         -3.0193276400       -1.8676688493       -1.0573215479
 O         -2.4588579803       -1.5627322598       -2.3481091981
 O         -3.8928978303       -3.0244623291       -1.0229922273
 C         -1.7234033397       -2.0958360294        0.1502000018
 C         -0.5232515900       -2.6073749499       -0.2977115484
 C          0.4781198202       -2.8789126599        0.6199190414
 C          0.2710830606       -2.6185037396        1.9648089014
 C         -0.9382251491       -2.1010155291        2.3997126216
 C         -1.9522329693       -1.8495957090        1.4891611318
 H         -2.9022394891       -1.4597046187        1.8159489820
 H         -1.0959341987       -1.8933289288        3.4459221716
 H          1.0560711608       -2.8184979396        2.6769408112
 H          1.4132021500       -3.2932632303        0.2812402912
 H         -0.3926460704       -2.7708984302       -1.3554635884
 H         -4.8698812595       -0.9523557086       -0.1643787675
 H         -5.2358935485        0.9048726619        1.2278962921
 H         -4.2808146676        2.8906905319        2.3396966614
 H         -1.9677804076        3.5864979811        1.8525457405
 H          0.0550720720        3.2446911002        0.8622008000
 C         -0.1608022986        3.1282426898       -1.2566690399
 C         -0.6091306982        4.5487302299       -1.4132650901
 C          0.8457064516        4.2047956894       -1.5229710404
 H          1.3167182014        4.2398784391       -2.4938314106
 H          1.4994190320        4.4895411794       -0.7110006607
 H         -1.1421354884        4.8226606798       -2.3107460600
 H         -0.9392000478        5.0721553802       -0.5287876301
 H         -0.3779343490        2.4392681997       -2.0624423396
