  62
        -98.93639004
 C          1.9764322441        0.7101540291       -0.4230349590
 C          3.0223682563        1.0469844098        0.4687753605
 C          4.2729854307        0.2752896536        0.3535570452
 C          4.3402453760       -0.7241167544       -0.5441873363
 C          5.4931231119       -1.6478024681       -0.8463111682
 C          6.2521082264       -2.2219411714        0.3599344183
 C          7.6602679278       -1.6469160824        0.5228919364
 H          8.2679351211       -2.3638808624        1.0795385755
 H          8.1086502240       -1.5401470920       -0.4671086949
 C          7.7348263195       -0.3097763817        1.2580143719
 H          7.5246886982       -0.4683286886        2.3180044607
 H          8.7628713010        0.0521190962        1.1815102974
 C          6.7922878920        0.7768152276        0.7366706622
 H          7.2022755259        1.7443983527        1.0339581971
 H          6.7618930850        0.7656611426       -0.3522561016
 C          5.3678323227        0.6793932923        1.3029596841
 H          5.3538313089        0.0055697860        2.1645569805
 H          5.0560215901        1.6571987379        1.6830292646
 H          6.3437836110       -3.2993271723        0.2125300248
 H          5.6725554555       -2.0702742411        1.2692556447
 H          5.0574552717       -2.4608637200       -1.4316192986
 H          6.1894929708       -1.1270941098       -1.5084723781
 O          3.2989431859       -1.0281121139       -1.3700796550
 C          2.1029783939       -0.3305788556       -1.3416867881
 O          1.2635681835       -0.7303914679       -2.1709281418
 H         -1.2463207159        0.0222751718       -1.6376929177
 C         -1.2828678627       -0.1028435601       -0.5673134888
 C         -0.3839136597        0.5784241360        0.2386237052
 C         -0.4384806628        0.3789653712        1.6155586361
 C         -1.3608089145       -0.4894844304        2.1683108504
 C         -2.2466443596       -1.1803484987        1.3599369509
 C         -2.1998629121       -0.9880826386       -0.0144170524
 N         -3.0910446074       -1.6901271172       -0.8415339269
 S         -4.6983713610       -1.7763118921       -0.3940832888
 O         -4.8689764110       -2.7843268745        0.6229845893
 O         -5.4248820331       -1.9925004922       -1.6254203097
 C         -5.0766776558       -0.1681284114        0.2798581360
 C         -5.3979255888       -0.0347012441        1.6150683123
 C         -5.6501843515        1.2308943167        2.1203559728
 C         -5.5743558235        2.3352169000        1.2862950535
 C         -5.2538878862        2.1843905609       -0.0544318296
 C         -5.0002597512        0.9219078744       -0.5646123593
 H         -4.7548195569        0.7680035927       -1.6031085696
 H         -5.1975083168        3.0448955312       -0.7015997940
 H         -5.7674172180        3.3199508850        1.6817635489
 H         -5.9017433923        1.3510279115        3.1617769343
 H         -5.4474915737       -0.9195008121        2.2284154672
 H         -2.9810016493       -1.4950013367       -1.8251305346
 H         -2.9597559502       -1.8768687949        1.7699770490
 H         -1.3889946276       -0.6353155464        3.2374065486
 H          0.2645668196        0.9055094638        2.2456346402
 C          0.6752967144        1.4903492945       -0.3286501115
 H          0.8682953093        2.2837394057        0.4056777938
 C          0.2943771330        2.1293944697       -1.6472861441
 C         -0.7508457199        3.2033807432       -1.6641155324
 C          0.6857175498        3.5514537025       -1.9101054386
 H          0.9880177008        3.8249354991       -2.9100098584
 H          1.2267054810        4.0724954509       -1.1339575349
 H         -1.4375069770        3.2424979417       -2.4957696200
 H         -1.1853242316        3.4868101402       -0.7176340377
 H          0.3353313785        1.4448636246       -2.4856626980
 O          2.9200727143        1.9645439875        1.3268436699
