  62
        -98.94128969
 C         -1.5879994233       -0.5909937916        0.9425113236
 C         -2.8298271119       -1.0904771643        0.4803683380
 C         -3.9189596747       -0.1056150800        0.3791290956
 C         -3.6883296730        1.1791316568        0.7021464414
 C         -4.6903725126        2.2897994835        0.5815406324
 C         -4.6072437281        2.9677083172       -0.7933633245
 C         -4.6087274005        1.9881197618       -1.9670162119
 H         -4.5771474085        2.5798930845       -2.8844472400
 H         -3.6926273648        1.3934921751       -1.9369657535
 C         -5.8212698169        1.0476726682       -2.0076270288
 H         -6.1989608711        1.0068970987       -3.0315453211
 H         -6.6214381600        1.4472094732       -1.3833941239
 C         -5.5214149008       -0.3919230141       -1.5859929733
 H         -6.3805730805       -1.0114390745       -1.8569996762
 H         -4.6594023721       -0.7657203585       -2.1443681465
 C         -5.2559941510       -0.6065479133       -0.0906529372
 H         -6.0622327685       -0.1595519361        0.4944037475
 H         -5.2541737587       -1.6847555527        0.0938866887
 H         -3.6847626143        3.5511506837       -0.8365310964
 H         -5.4494784926        3.6552771677       -0.8902678889
 H         -5.6896691926        1.8892794699        0.7406471805
 H         -4.4781736240        3.0297477445        1.3550455854
 O         -2.4816416510        1.6245565059        1.1351660798
 C         -1.4082161933        0.7600747854        1.2581946102
 O         -0.3600366703        1.3027588148        1.6601177903
 H          1.9396401416       -0.3320559828        0.2869045330
 C          1.5265224099       -0.9752624145       -0.4746775363
 C          0.3341639641       -1.6411252565       -0.2302286483
 C         -0.2039012891       -2.4447959294       -1.2298241868
 C          0.4514848640       -2.5820592664       -2.4396665293
 C          1.6545157601       -1.9378716307       -2.6704854545
 C          2.1951409214       -1.1243376017       -1.6813158792
 N          3.3958538362       -0.4363608081       -1.8956036290
 S          4.4598310150       -0.1392088394       -0.6416684521
 O          5.7213934724        0.1216555964       -1.3017532593
 O          4.4612716940       -1.2144867772        0.3227066595
 C          3.8715312344        1.3678661349        0.0985252962
 C          3.6595184107        2.4584595339       -0.7208803239
 C          3.2158250170        3.6424809446       -0.1554574948
 C          2.9940342136        3.7158099894        1.2113316515
 C          3.2155597490        2.6132800057        2.0208240251
 C          3.6601958567        1.4266011587        1.4610923136
 H          3.8375527339        0.5432425943        2.0548871236
 H          3.0359644746        2.6701972421        3.0823495299
 H          2.6425199399        4.6364920108        1.6496482350
 H          3.0402644302        4.5033064428       -0.7806277226
 H          3.8438584279        2.3634979156       -1.7781439413
 H          3.8683765446       -0.6484863783       -2.7616252613
 H          2.1700083218       -2.0576129128       -3.6113985750
 H          0.0256726986       -3.2064262666       -3.2108013021
 H         -1.1456027214       -2.9417483033       -1.0561301692
 C         -0.3501948447       -1.4598962428        1.1034695046
 H          0.3319157427       -0.8854015447        1.7450514685
 C         -0.6212115703       -2.7916459621        1.7745062430
 C          0.5384010500       -3.5583565127        2.3332279162
 C         -0.4488972699       -2.9117961256        3.2571766982
 H         -1.1320439396       -3.5430092315        3.8055006118
 H         -0.1387573217       -2.0300490684        3.7992714654
 H          1.5201880678       -3.1162537337        2.2429126729
 H          0.5341140942       -4.6342174787        2.2475923883
 H         -1.4266359139       -3.3531432632        1.3211416630
 O         -3.0459605299       -2.2903139793        0.1646670596
