  62
        -98.94053874
 C         -0.0562482250       -1.8685576293        0.7599368572
 C          1.0613989062       -2.3775594719        0.0502883987
 C          2.3515328489       -1.7173103921        0.2833716900
 C          2.4127603962       -0.6962226964        1.1558659099
 C          3.6202568212        0.1586188564        1.4184054652
 C          3.7701877322        1.2011512000        0.2908685961
 C          5.0157906262        1.0185850661       -0.5778919645
 H          4.8916285222        1.6545645942       -1.4572939578
 H          5.8880827705        1.3798445944       -0.0282445819
 C          5.3117900470       -0.4129850266       -1.0354619361
 H          5.7918848032       -0.9646950073       -0.2256140120
 H          6.0444880608       -0.3429306408       -1.8423216852
 C          4.1060820564       -1.2209388198       -1.5334221479
 H          3.3083822339       -0.5558911008       -1.8694029645
 H          4.4203402805       -1.8045359204       -2.4014616197
 C          3.5330959888       -2.2119649822       -0.5019579707
 H          3.1705705631       -3.0986998915       -1.0301891087
 H          4.3248483800       -2.5333344398        0.1803989644
 H          3.8053102209        2.2041437095        0.7218724982
 H          2.8776747960        1.1608570636       -0.3404058047
 H          3.4682560863        0.6551909192        2.3772120734
 H          4.5090877561       -0.4647462036        1.4848411141
 O          1.3345634479       -0.2648361899        1.8540776503
 C          0.0674572797       -0.7957117276        1.6425461396
 O         -0.8199633255       -0.2232275807        2.3041011125
 H         -1.3570662175        0.2103284017       -0.0623544677
 C         -1.8099914820       -0.3249568314       -0.8810776495
 C         -1.9544667442       -1.7018014056       -0.8090514727
 C         -2.5678804996       -2.3611083715       -1.8675376954
 C         -2.9986898223       -1.6566003325       -2.9780711622
 C         -2.7924462346       -0.2915122574       -3.0724494554
 C         -2.1837173025        0.3759430951       -2.0163199159
 N         -1.9231703651        1.7533306332       -2.0632016705
 S         -0.5102544706        2.3310653938       -1.3668923597
 O         -0.2640726216        3.5855108094       -2.0516412218
 O          0.5629654916        1.3652423410       -1.4414398323
 C         -0.9308328716        2.6926111086        0.3228543427
 C          0.0812932126        2.7044406737        1.2601676511
 C         -0.2218199944        3.0304167454        2.5715515681
 C         -1.5256775644        3.3418703895        2.9199438007
 C         -2.5302165769        3.3314155836        1.9651252783
 C         -2.2337751156        3.0073316034        0.6514395102
 H         -2.9928031067        2.9786992056       -0.1127623026
 H         -3.5453480284        3.5678361163        2.2414823413
 H         -1.7604937608        3.5862751290        3.9439796789
 H          0.5583311770        3.0262259255        3.3157751451
 H          1.0801378108        2.4364436808        0.9539200633
 H         -2.1200791475        2.2031198690       -2.9454266201
 H         -3.0888011906        0.2515405879       -3.9568186831
 H         -3.4734104529       -2.1798577197       -3.7940949856
 H         -2.6853504734       -3.4335660336       -1.8282954302
 C         -1.4063240238       -2.4540484240        0.3837522425
 H         -1.2045093136       -3.4844080907        0.0587180147
 C         -2.4232465517       -2.4942180678        1.5056700683
 C         -3.5049783795       -3.5307898255        1.4788699053
 C         -2.3960874539       -3.6302273227        2.4820191767
 H         -2.6102501742       -3.4199433327        3.5186985141
 H         -1.6447699940       -4.3931890410        2.3382396973
 H         -4.4885289394       -3.2541005555        1.8255770274
 H         -3.5088495095       -4.2347915577        0.6608251887
 H         -2.6716041391       -1.5145614932        1.8917948597
 O          0.9761965281       -3.3463348834       -0.7540889798
