  62
        -98.93062267
 C         -1.8288232302        1.0201108967        0.6139042511
 C         -2.8271516465        1.2325469928       -0.3692176652
 C         -4.0149610056        0.3612631159       -0.3317049326
 C         -4.0969867874       -0.5783567783        0.6265525806
 C         -5.1923647080       -1.5851018063        0.8729099439
 C         -6.6357594402       -1.0659187292        0.7815933921
 C         -7.3918036361       -1.5823747111       -0.4437492413
 H         -7.1250567632       -2.6296803794       -0.6002369004
 H         -8.4631004464       -1.5471213319       -0.2334797973
 C         -7.1486164190       -0.8007483899       -1.7336400537
 H         -7.6405753326        0.1718574018       -1.6644182301
 H         -7.6277874822       -1.3499507950       -2.5475496889
 C         -5.6792443975       -0.5728469701       -2.0945985359
 H         -5.0922628192       -1.4681217121       -1.8924813960
 H         -5.6242679580       -0.3926052883       -3.1703283887
 C         -5.0517237554        0.6370785174       -1.3864657386
 H         -4.5366234237        1.2656346006       -2.1194314739
 H         -5.8367709575        1.2635352531       -0.9529609390
 H         -6.6391159586        0.0228774676        0.7980497099
 H         -7.1675557695       -1.4040257300        1.6724648131
 H         -5.0544628532       -2.4225265341        0.1843206744
 H         -4.9993062397       -1.9731135692        1.8757439253
 O         -3.1093830179       -0.7575347241        1.5479088061
 C         -1.9543704623        0.0162961124        1.5739949329
 O         -1.1715909585       -0.2956544381        2.4881502458
 H          0.4784663108       -0.5744512746        0.4966435820
 C          0.8590421057        0.0604986337       -0.2893925381
 C          0.4106009367        1.3695706796       -0.4106105853
 C          0.9116235236        2.1550525259       -1.4435568330
 C          1.8350260469        1.6460052517       -2.3387189140
 C          2.2955066592        0.3492993761       -2.2018374898
 C          1.8058529807       -0.4427512018       -1.1699081905
 N          2.2843263536       -1.7602003524       -0.9767938608
 S          3.3227346044       -1.9421558147        0.3277024517
 O          3.7998597017       -3.3054738909        0.2572042294
 O          2.6556708047       -1.5439185404        1.5376020314
 C          4.6606018206       -0.8162956713       -0.0354853514
 C          4.5133349997        0.5189970179        0.2844345869
 C          5.5158239802        1.4068278622       -0.0732564809
 C          6.6403425330        0.9475339812       -0.7418074836
 C          6.7744919950       -0.3969939435       -1.0537222220
 C          5.7732191605       -1.2888072893       -0.7039482317
 H          5.8353490977       -2.3427014111       -0.9227383908
 H          7.6518604770       -0.7520312072       -1.5699255751
 H          7.4172652812        1.6421982820       -1.0193982679
 H          5.4116261322        2.4517629094        0.1704782008
 H          3.6287718976        0.8385328652        0.8115682743
 H          2.7284541441       -2.1480999338       -1.7987670456
 H          3.0236754700       -0.0531292172       -2.8902535192
 H          2.2047091614        2.2644769970       -3.1417378167
 H          0.5528927110        3.1678168507       -1.5521100546
 C         -0.6166357048        1.9317974722        0.5392631180
 H         -0.9969330342        2.8611462489        0.0843849941
 C         -0.0343004099        2.3142392380        1.8907702710
 C          1.1487049164        1.6475101517        2.5179511884
 C          1.2824820803        3.0319434256        1.9626539674
 H          1.3866429158        3.8559175250        2.6521090576
 H          1.8302811081        3.1525538388        1.0397566393
 H          1.1284113272        1.5154694814        3.5894723575
 H          1.6104625711        0.8159616295        2.0091423140
 H         -0.8097905274        2.6433229226        2.5760735014
 O         -2.7306972353        2.1306465242       -1.2492509209
