  62
        -98.94603132
 C         -1.6929058468       -1.2279215264       -0.8019534149
 C         -2.8517930556       -0.6901501683       -0.1825101794
 C         -3.2070179395        0.6850582015       -0.5401068700
 C         -2.4659999852        1.3477001153       -1.4458489458
 C         -2.6741297803        2.7674420395       -1.8959634762
 C         -2.0177782092        3.7932493518       -0.9613334937
 C         -2.7379422687        4.0064376947        0.3708491644
 H         -2.3179042338        4.9085500698        0.8204287352
 H         -3.7969407818        4.1940008731        0.1876566528
 C         -2.5805784626        2.8461909678        1.3641834510
 H         -2.3452000691        3.2462333335        2.3538422546
 H         -1.7296126069        2.2262531464        1.0678952813
 C         -3.8224472223        1.9663861801        1.5177741210
 H         -3.5793779564        1.1540913866        2.2079533270
 H         -4.6326017484        2.5529838850        1.9577707762
 C         -4.3261091629        1.3407125979        0.2104862029
 H         -5.0583500784        0.5688518940        0.4605062841
 H         -4.8096150598        2.0967190253       -0.4077172220
 H         -0.9889904940        3.4785351993       -0.7655778310
 H         -1.9831302422        4.7483515675       -1.4911405086
 H         -3.7400758502        2.9785470953       -1.9853401604
 H         -2.2153981264        2.8551961456       -2.8831811127
 O         -1.4121912262        0.7751362752       -2.0762531364
 C         -0.9540107872       -0.4868357311       -1.7227666160
 O          0.0913432122       -0.8105580768       -2.3227665885
 O         -3.5529268232       -1.3358659809        0.6432120218
 C         -1.2355309783       -2.5815007770       -0.2818903547
 C         -0.4100086300       -2.3411871709        0.9624435403
 C         -0.7142559629       -2.9625802298        2.1663627501
 C         -0.0063869757       -2.6490645032        3.3138755791
 C          0.9853679689       -1.6862892258        3.2872346623
 C          1.3011044399       -1.0615596379        2.0840125546
 C          0.6343372993       -1.4275019507        0.9261441062
 H          0.8902021730       -0.9498075035       -0.0043329853
 N          2.2837165086       -0.0642680714        2.0321132018
 S          2.1493114853        1.2863466327        1.0384220564
 O          2.6468632698        2.3797805538        1.8505451784
 O          0.8157344809        1.4436937081        0.5134047214
 C          3.3477466996        0.9575989665       -0.2374680316
 C          2.9687477135        0.4740396487       -1.4723929901
 C          3.9516760062        0.2079609642       -2.4150254703
 C          5.2855414221        0.4272444446       -2.1112132940
 C          5.6500764551        0.9170362674       -0.8656336865
 C          4.6746643078        1.1839943081        0.0796891968
 H          4.9107989731        1.5791661676        1.0537584928
 H          6.6878962067        1.0901423689       -0.6306010350
 H          6.0431110316        0.2168575363       -2.8496934258
 H          3.6594345231       -0.1727407498       -3.3808175583
 H          1.9263100159        0.3047806914       -1.6967471536
 H          2.6651113444        0.1910492150        2.9313161589
 H          1.5069609552       -1.4089408040        4.1908634119
 H         -0.2505788608       -3.1366486133        4.2455700166
 H         -1.5274627999       -3.6718280723        2.2070766694
 H         -2.1511592721       -3.1066867472        0.0242130350
 C         -0.4946222547       -3.4485932056       -1.2764037711
 C         -0.4869250457       -4.9340752932       -1.0778226459
 C         -1.2720803971       -4.3320050950       -2.2033810618
 H         -0.9132270203       -4.4567575415       -3.2136327818
 H         -2.3492824419       -4.3148435875       -2.1227802396
 H          0.4144022102       -5.4784029226       -1.3133460202
 H         -1.0335374032       -5.3310564432       -0.2359308580
 H          0.4026308827       -2.9883117315       -1.6675086296
