  62
        -98.94528119
 C          1.7261701490        0.5423303197        0.8398103206
 C          2.0769105793       -0.0055340900       -0.4198655594
 C          2.1837751792       -1.4729328600       -0.4749756098
 C          1.8928455788       -2.2016908603        0.6161710699
 C          1.9491908787       -3.6997984103        0.6964582994
 C          0.5999213287       -4.3461152401        0.3569011288
 C         -0.0241226709       -3.8423571696       -0.9447019812
 H         -0.9398958109       -4.4153993595       -1.1102850416
 H         -0.3235846208       -2.7975240396       -0.8353203010
 C          0.8820503595       -3.9607559593       -2.1775293610
 H          1.6816023693       -4.6792311595       -1.9895485710
 H          0.2875263697       -4.3444613890       -3.0094056913
 C          1.4830727597       -2.6305332292       -2.6370807904
 H          0.6932583398       -1.8753407292       -2.6806830304
 H          1.8719815200       -2.7621355290       -3.6508719203
 C          2.6274253295       -2.0825304596       -1.7743343499
 H          3.3672672594       -2.8679565797       -1.6005524299
 H          3.1076987797       -1.2751922695       -2.3353425395
 H          0.7450749486       -5.4265915001        0.2944426986
 H         -0.0993444115       -4.1455266703        1.1721871587
 H          2.7162640988       -4.0615491402        0.0141612795
 H          2.2249610784       -3.9753358606        1.7163122694
 O          1.4863205885       -1.6452792906        1.7867475199
 C          1.3822698086       -0.2690138206        1.9227392303
 O          0.9742284883        0.1012072491        3.0416486003
 H         -0.8238454408        1.1625060700        0.4005523001
 C         -0.5348045106        1.9654343702       -0.2617076696
 C          0.6964507694        2.5806006300       -0.0733717890
 C          1.0566366498        3.6190181903       -0.9201219886
 C          0.2084727201        4.0050514207       -1.9444921487
 C         -0.9935857399        3.3557226108       -2.1585125093
 C         -1.3639333802        2.3170251206       -1.3114237597
 N         -2.5695537703        1.6187119708       -1.4837812803
 S         -2.5947514705       -0.0312214193       -1.1869052008
 O         -1.3335099504       -0.6584559693       -1.4981194306
 O         -3.7428279403       -0.5092283590       -1.9300123312
 C         -2.9514309810       -0.1557800698        0.5525597891
 C         -2.1440201913       -0.9236259801        1.3671973091
 C         -2.4346685217       -1.0066496605        2.7192521390
 C         -3.5296063918       -0.3266801206        3.2295216589
 C         -4.3384499315        0.4327839497        2.3971465989
 C         -4.0492324411        0.5217273701        1.0451658590
 H         -4.6510687208        1.1022612004        0.3661500290
 H         -5.1889325215        0.9588929997        2.7998381588
 H         -3.7494560121       -0.3893132809        4.2835820088
 H         -1.7926007719       -1.5849259508        3.3645455390
 H         -1.2908637912       -1.4268402901        0.9376282792
 H         -3.0870012200        1.8589312311       -2.3169228103
 H         -1.6359935097        3.6393404211       -2.9784222694
 H          0.4998879603        4.8098193908       -2.6025947584
 H          2.0104459798        4.1058501802       -0.7994690482
 C          1.5560490991        2.0404479896        1.0424266410
 H          0.9805933988        2.1311717294        1.9791194509
 C          2.8484318491        2.8121600095        1.2562798217
 C          4.0599302889        2.1407313692        1.8296723618
 C          4.0651727693        2.6083319796        0.4067133319
 H          4.6629540594        3.4727891696        0.1562350024
 H          4.0076154695        1.8737297599       -0.3800845683
 H          4.6518744187        2.6801056889        2.5538676321
 H          3.9987827487        1.0783865691        2.0181205315
 H          2.6589184891        3.8258321494        1.5962023019
 O          2.3154194097        0.6823391403       -1.4454728191
