  62
        -98.94184911
 C         -2.2520048018       -0.7380461659        0.1273379575
 C         -3.4315323714       -0.9907873153        0.8772074429
 C         -4.3636557201        0.1316479713        1.0231750598
 C         -4.0411087112        1.3340012755        0.5144678105
 C         -4.8693564128        2.5866767175        0.6070727307
 C         -5.9581973438        2.6961182496       -0.4692752845
 C         -7.1511611199        1.7569120204       -0.2862313519
 H         -7.9289649631        2.0892986882       -0.9765634188
 H         -7.5452169099        1.8653279031        0.7246757548
 C         -6.8425656633        0.2792274211       -0.5651438463
 H         -5.9103649106        0.2030836814       -1.1299484782
 H         -7.6305321397       -0.1455123597       -1.1911044109
 C         -6.7373158592       -0.5934282623        0.6857557918
 H         -6.4823539565       -1.6097950335        0.3745221978
 H         -7.7055874223       -0.6293618001        1.1896453989
 C         -5.6790369229       -0.1263696154        1.6938510864
 H         -5.5274265628       -0.9222966232        2.4269738664
 H         -6.0227146327        0.7677400306        2.2134545198
 H         -5.5019994313        2.5206706775       -1.4464676480
 H         -6.3268541212        3.7244131110       -0.4554294486
 H         -5.3249775229        2.6520525984        1.5955966578
 H         -4.1790390329        3.4244341275        0.4860757982
 O         -2.8746504266        1.5550338067       -0.1451741587
 C         -1.9618720633        0.5307852803       -0.3784630911
 O         -0.9676654148        0.8970279184       -1.0334574259
 H          0.7984856169       -1.0922784954       -1.6209604934
 C          1.0481695177       -1.0805129172       -0.5714564663
 C          0.1023396989       -1.4724821785        0.3617204266
 C          0.4326262869       -1.4147955704        1.7123983941
 C          1.6811768925       -0.9795808281        2.1145766682
 C          2.6214151556       -0.5820095347        1.1798446719
 C          2.2935394644       -0.6162647025       -0.1684166322
 N          3.2345863857       -0.2056251645       -1.1266725200
 S          4.1434918485        1.1746369441       -0.8391278644
 O          3.4488592026        2.1295795580       -0.0075333836
 O          4.5477741602        1.6355682409       -2.1500636132
 C          5.5796720239        0.5536852761        0.0152455330
 C          5.9868560877        1.1439841227        1.1955935634
 C          7.1146471765        0.6550195119        1.8366764304
 C          7.8130558719       -0.4094348601        1.2880456343
 C          7.3931444205       -0.9896699512        0.1003294939
 C          6.2672982129       -0.5047856454       -0.5457540027
 H          5.9099834910       -0.9256911122       -1.4705558085
 H          7.9387584992       -1.8173932118       -0.3233743407
 H          8.6896381318       -0.7886772677        1.7891352099
 H          7.4423309727        1.1057715385        2.7597198752
 H          5.4090380163        1.9658908601        1.5881085897
 H          2.8691517427       -0.1992611572       -2.0682311269
 H          3.5906827306       -0.2248882150        1.4870726110
 H          1.9254868062       -0.9436974007        3.1654264761
 H         -0.3077738531       -1.7058527650        2.4447827742
 C         -1.2847194640       -1.8976117764       -0.0433256022
 H         -1.6363728451       -2.6485984192        0.6824686254
 C         -1.3264710891       -2.5668936785       -1.4092009024
 C         -2.6342195709       -2.7720123475       -2.1121994234
 C         -1.6173678481       -1.8305779213       -2.6810165538
 H         -1.0874206273       -2.1297488927       -3.5740485456
 H         -1.8040703856       -0.7696604634       -2.6235431905
 H         -3.5155544851       -2.3509650573       -1.6504149864
 H         -2.8098809539       -3.7098769262       -2.6169461772
 H         -0.6093642620       -3.3796249668       -1.4763939640
 O         -3.6912794606       -2.1049347266        1.4034317594
