  62
        -98.93563036
 C          2.4610930801        0.7821889203        0.4235774592
 C          2.4084018303       -0.6344342096        0.4805626094
 C          3.4673159602       -1.3591588796       -0.2313352108
 C          4.3904817499       -0.6600740596       -0.9162321012
 C          5.5547448797       -1.2614175596       -1.6476955415
 C          6.7887526900       -1.3634061693       -0.7402645118
 C          6.5044465005       -2.0010649692        0.6197107284
 H          7.4519150107       -2.0489528590        1.1607498081
 H          5.8417056406       -1.3452484892        1.1888857785
 C          5.8859045306       -3.4040952593        0.5464968488
 H          6.0459860004       -3.8284030094       -0.4452754112
 H          6.3981316909       -4.0504239591        1.2622937987
 C          4.3950155307       -3.4582639394        0.8852923492
 H          4.2165453810       -2.9496695492        1.8360154092
 H          4.1138602909       -4.5064961894        1.0170082695
 C          3.4501514003       -2.8604517496       -0.1649898606
 H          3.6680382601       -3.2913489998       -1.1445365506
 H          2.4276919805       -3.1356375697        0.1102373698
 H          7.5539722999       -1.9406654693       -1.2623408520
 H          7.1779433699       -0.3566618693       -0.5717640021
 H          5.2760910097       -2.2479870597       -2.0131300012
 H          5.7923349194       -0.6222480497       -2.4997416016
 O          4.3898777697        0.6937782104       -0.9809868214
 C          3.4306764898        1.4551416603       -0.3209506612
 O          3.5697336896        2.6802642803       -0.4845866014
 H         -1.1420941695        0.6141098601        1.5425189603
 C         -1.0483080999        1.1548507000        0.6105040502
 C          0.1775891900        1.7017990701        0.2643298397
 C          0.2957590495        2.3607264999       -0.9560528704
 C         -0.7970885307        2.4786755997       -1.7948373501
 C         -2.0219741506        1.9380927196       -1.4425944196
 C         -2.1453976401        1.2631702197       -0.2360627795
 N         -3.3860337500        0.7094786897        0.1340425510
 S         -4.2283600202       -0.1468955606       -1.0574507986
 O         -3.3403705603       -1.0699783106       -1.7283735088
 O         -4.9079400506        0.8019776692       -1.9034748286
 C         -5.4160078898       -1.0272132206       -0.0630208881
 C         -6.6015411398       -0.4013782007        0.2725335221
 C         -7.5125801995       -1.0769860707        1.0687276425
 C         -7.2243870492       -2.3586029706        1.5138949826
 C         -6.0304355392       -2.9737836305        1.1681415523
 C         -5.1140853195       -2.3034666005        0.3731094920
 H         -4.1777434096       -2.7469411404        0.0729221417
 H         -5.8095270990       -3.9708534504        1.5137398024
 H         -7.9353250889       -2.8831558605        2.1324871929
 H         -8.4427830694       -0.6035415407        1.3383000627
 H         -6.7853672100        0.5911046592       -0.1041480680
 H         -3.3088643196        0.1520697998        0.9747491610
 H         -2.8753871708        2.0123721294       -2.0969689594
 H         -0.6943114411        2.9927537695       -2.7390670602
 H          1.2544745994        2.7682521800       -1.2409224107
 C          1.3681615603        1.5255234603        1.1721269994
 H          1.0663727006        0.8366325104        1.9771411696
 C          1.8381891203        2.8133072405        1.8318583691
 C          1.3485922901        4.1746474604        1.4487526890
 C          0.9072855505        3.5608580205        2.7410346892
 H          1.2934698008        3.9594191907        3.6667946591
 H         -0.1120149894        3.2091573704        2.8001765896
 H          0.6263750298        4.2562803902        0.6521210892
 H          2.0624633400        4.9837835105        1.4718002987
 H          2.8753973504        2.7524383106        2.1441680488
 O          1.5146265706       -1.2621595297        1.1112785598
