  62
        -98.93821166
 C          1.7744465127        0.2138160239       -0.8816670267
 C          2.9333667097       -0.5932750612       -1.0032106269
 C          4.2116133372        0.0736098062       -0.6976670021
 C          4.2196226621        1.3680571169       -0.3352679522
 C          5.4420709233        2.1441226704        0.0593797140
 C          5.6854083913        2.0659839329        1.5730730467
 C          5.6323043848        0.6451037424        2.1344985290
 H          5.8471740178        0.7094016905        3.2034177239
 H          4.6147410210        0.2602802396        2.0344218442
 C          6.6119245694       -0.3351812522        1.4742706356
 H          7.1036436143       -0.9186078322        2.2556306783
 H          7.3894355917        0.2174661262        0.9455780529
 C          5.9605256310       -1.3339636337        0.5159610105
 H          5.1206843549       -1.8250014944        1.0140720671
 H          6.6964025173       -2.1069758679        0.2785794144
 C          5.4607157115       -0.7544976923       -0.8134430293
 H          6.2599175978       -0.1825432973       -1.2891701855
 H          5.2035052245       -1.5947210032       -1.4652116255
 H          6.6594606802        2.5085641438        1.7894652445
 H          4.9212822396        2.6617321623        2.0776687943
 H          6.3036738490        1.7532387169       -0.4784010169
 H          5.2921564470        3.1877596838       -0.2221516785
 O          3.0890205308        2.1136158470       -0.2403875738
 C          1.8493773210        1.5567892422       -0.5005631036
 O          0.8961644104        2.3512337231       -0.3702729931
 H         -2.1112959327        0.0757467212       -0.1930861742
 C         -1.5585150979       -0.6333197209        0.4033116499
 C         -0.2445449157       -0.9291624150        0.0725042719
 C          0.4621885379       -1.8208461977        0.8724263124
 C         -0.1410371669       -2.4015706877        1.9732308913
 C         -1.4625328557       -2.1284479105        2.2803091307
 C         -2.1785461141       -1.2417204435        1.4854347900
 N         -3.5202890802       -0.9426571836        1.7582252385
 S         -4.6026289712       -0.8000480567        0.4858654027
 O         -5.8916782644       -1.1018552118        1.0695969852
 O         -4.2027123622       -1.6132373491       -0.6376837688
 C         -4.5532216876        0.9257317829        0.0551864908
 C         -4.2602818361        1.3036277943       -1.2399347935
 C         -4.2363613241        2.6530044139       -1.5553249083
 C         -4.5066223115        3.5952450256       -0.5752270408
 C         -4.8039215144        3.1990621806        0.7201362352
 C         -4.8287746018        1.8518401899        1.0416151867
 H         -5.0595193225        1.5046565394        2.0349066800
 H         -5.0134452224        3.9360235834        1.4786410776
 H         -4.4843218650        4.6446125847       -0.8236057899
 H         -4.0035709002        2.9625059517       -2.5616700433
 H         -4.0516522914        0.5392037576       -1.9724711700
 H         -3.9187204265       -1.4454609223        2.5377461861
 H         -1.9368710768       -2.5978092215        3.1289034597
 H          0.4188594461       -3.0888793613        2.5897183578
 H          1.4819998063       -2.0641694037        0.6162926531
 C          0.3692028042       -0.2973136168       -1.1501566882
 H         -0.2231348717        0.6026268161       -1.3816616536
 C          0.2836388919       -1.2092404637       -2.3674867499
 C          0.0994812719       -2.6911083706       -2.2839698284
 C         -1.0257344108       -1.8268683617       -2.7634966074
 H         -1.2850652735       -1.8523860321       -3.8115558183
 H         -1.8734738610       -1.6985708855       -2.1050484416
 H          0.0153768463       -3.1399006411       -1.3067849931
 H          0.6322028437       -3.3029616886       -2.9958282210
 H          0.9125369880       -0.8522415099       -3.1774197045
 O          2.9274645929       -1.8036917340       -1.3421000116
