  62
        -98.94943502
 C          0.7581424094        1.7775151090       -0.2315401408
 C          2.0199991397        1.7735775893        0.4053000687
 C          2.9745830298        0.7675841696       -0.0722331716
 C          2.6126831796       -0.0848037806       -1.0482244114
 C          3.4816935897       -1.1548113403       -1.6533269518
 C          3.5360773703       -2.4579710503       -0.8443435018
 C          4.3508348208       -2.3933863201        0.4475785579
 H          4.4988287912       -3.4217988100        0.7836156579
 H          5.3354613806       -1.9731609898        0.2386811275
 C          3.6782602110       -1.6017397102        1.5779758082
 H          2.6090728309       -1.4985145805        1.3729213786
 H          3.7596113716       -2.1630482502        2.5122594682
 C          4.2820724208       -0.2196200600        1.8290767879
 H          5.3028634909       -0.3302451298        2.2033694775
 H          3.6907758909        0.2746567598        2.6043430381
 C          4.3128502701        0.6950996899        0.5985808079
 H          4.5707610499        1.7039681800        0.9313175378
 H          5.0730158399        0.3535800301       -0.1040516724
 H          3.9741694303       -3.2241262202       -1.4886873519
 H          2.5170898705       -2.7692257406       -0.6012619113
 H          4.4935875095       -0.7705512701       -1.7879296422
 H          3.0611923594       -1.3762377405       -2.6366120916
 O          1.3891058394       -0.0471326209       -1.6390031410
 C          0.4276363793        0.8693788489       -1.2379055706
 O         -0.6545613709        0.7808655086       -1.8468566702
 O          2.3362628898        2.5776073994        1.3252616286
 C         -0.2975782906        2.7634343687        0.2263445996
 C         -1.5544024003        2.0522381984        0.6665277501
 C         -2.8122345205        2.6389645480        0.5808350306
 C         -3.9373413901        1.9545273677        1.0056355611
 C         -3.8399848496        0.6660440278        1.4992083910
 C         -2.5871667194        0.0709579881        1.5877456806
 C         -1.4595176897        0.7741724784        1.1985231101
 H         -0.4946719096        0.2993248787        1.2934838998
 N         -2.4326479689       -1.2433487018        2.0634670105
 S         -1.3957378789       -2.2821367216        1.2683193802
 O         -1.7945012484       -3.5976305117        1.7302374703
 O         -0.0220649889       -1.9290756112        1.5294343396
 C         -1.7388435696       -2.1639983317       -0.4784221597
 C         -3.0191884198       -1.9153148021       -0.9285774092
 C         -3.2533515304       -1.8839758421       -2.2934280791
 C         -2.2144897707       -2.1113951019       -3.1811538795
 C         -0.9374464304       -2.3729481515       -2.7139362400
 C         -0.6981358899       -2.3999546414       -1.3509312501
 H          0.2847188403       -2.5807767912       -0.9454680405
 H         -0.1244653106       -2.5418290513       -3.4018571203
 H         -2.3986710111       -2.0784936020       -4.2434795195
 H         -4.2458431306       -1.6757621824       -2.6597019688
 H         -3.8168462296       -1.7386366422       -0.2260112289
 H         -3.2915191086       -1.7110550521        2.3151738409
 H         -4.7201954993        0.1263133776        1.8145293514
 H         -4.9061323903        2.4251770975        0.9375555814
 H         -2.9098067109        3.6343315780        0.1790422406
 H          0.1351262096        3.2731226688        1.1013002394
 C         -0.5596115713        3.7945963586       -0.8549534703
 C         -0.8564925616        5.2200424585       -0.4988616802
 C          0.4672699783        4.8582014689       -1.0998028307
 H          0.6742584578        5.1524241989       -2.1176806808
 H          1.3379597285        4.8582721491       -0.4601197911
 H         -1.5600286420        5.7674192083       -1.1080507100
 H         -0.8781151712        5.4824398186        0.5482288098
 H         -1.0541351516        3.3671733385       -1.7200461301
