  62
        -98.93965488
 C          2.1524761448        0.7626737460        0.8002495940
 C          2.8911371886       -0.3965775275        1.1524736111
 C          4.3068404421       -0.4093279938        0.7711305085
 C          4.8356739815        0.6575130497        0.1453598278
 C          6.2688917015        0.8131248147       -0.2854976552
 C          6.5866257963        0.1685601450       -1.6416566571
 C          6.6329713538       -1.3599273307       -1.6404072249
 H          7.0775542338       -1.6678656615       -2.5888718265
 H          7.2954818090       -1.7017499744       -0.8445909992
 C          5.2616799136       -2.0350189516       -1.4965720534
 H          5.1728237893       -2.8397721255       -2.2298255732
 H          4.4732007415       -1.3121658735       -1.7187222529
 C          4.9965901344       -2.6460435682       -0.1204422688
 H          3.9852293085       -3.0610768106       -0.1186777483
 H          5.6969682552       -3.4649181979        0.0588314532
 C          5.1010544910       -1.6509113009        1.0426920761
 H          4.6849854676       -2.1226347558        1.9363928271
 H          6.1449907387       -1.4015795761        1.2322969290
 H          5.8494973001        0.5099754240       -2.3719606719
 H          7.5642886291        0.5399254116       -1.9573547640
 H          6.9276654650        0.3996878011        0.4787154664
 H          6.4553159559        1.8864631723       -0.3623180837
 O          4.1026703143        1.7589976666       -0.1579771506
 C          2.7434170690        1.8354627904        0.1305698638
 O          2.2141372021        2.8930871868       -0.2550359265
 O          2.3874646942       -1.3739576867        1.7695035956
 C          0.6853398561        0.7722771173        1.1864453807
 C         -0.1789056072        0.2088936993        0.0862235719
 C         -0.0150901132        0.6034233336       -1.2385835375
 C         -0.8187362207        0.0769665955       -2.2329774855
 C         -1.8153631591       -0.8329952124       -1.9241728622
 C         -1.9927830953       -1.2269093599       -0.6040807523
 C         -1.1680222481       -0.7154215167        0.3890696139
 H         -1.3126462303       -1.0450148755        1.4065576261
 N         -3.0112165887       -2.1337766878       -0.2436823966
 S         -4.2294317179       -1.5453483145        0.7457855957
 O         -3.6619054859       -1.0716877488        1.9804361208
 O         -5.1976701283       -2.6135375576        0.8404718277
 C         -4.9179408004       -0.1847659770       -0.1810338888
 C         -4.2884439217        1.0430305629       -0.1307244192
 C         -4.7780841458        2.0787924496       -0.9106025672
 C         -5.8814831153        1.8695985708       -1.7237871629
 C         -6.5033286839        0.6305717764       -1.7625275187
 C         -6.0154492315       -0.4102754398       -0.9889009931
 H         -6.4695997562       -1.3880662541       -0.9842338922
 H         -7.3629677285        0.4723079924       -2.3936587009
 H         -6.2588815769        2.6783505254       -2.3294311056
 H         -4.2929765671        3.0413135308       -0.8789572743
 H         -3.4366444566        1.1729442876        0.5162303247
 H         -3.4252613376       -2.6113008360       -1.0326847844
 H         -2.4477433894       -1.2383220278       -2.6996977448
 H         -0.6756218952        0.3871874001       -3.2568350405
 H          0.7437914559        1.3334232536       -1.4764700038
 H          0.6158953117        0.0775547205        2.0391395433
 C          0.1935247989        2.1318896114        1.6670394280
 C         -0.8431911591        2.9293857410        0.9392744069
 C         -1.1888401717        2.2626822240        2.2353619659
 H         -1.3295707052        2.8770443084        3.1119861117
 H         -1.8223867399        1.3867915788        2.2136614587
 H         -0.7265826864        4.0020888060        0.9232638445
 H         -1.2475142608        2.5229215034        0.0252553608
 H          0.9772015664        2.6972094403        2.1600349424
