  62
        -98.94518226
 C          2.1515710206        0.8529165200        0.0827994287
 C          2.9290582808        0.2889341805        1.1215677088
 C          3.6699773108       -0.9326458897        0.7802702392
 C          3.5414851407       -1.4559215002       -0.4529360606
 C          4.2737344606       -2.6687184303       -0.9484072102
 C          5.6010537905       -2.2825276405       -1.6161609006
 C          6.4569082306       -1.3280377002       -0.7833744211
 H          7.3796189405       -1.1500933003       -1.3397628413
 H          5.9415554306       -0.3684461801       -0.7002939214
 C          6.7983380608       -1.8428989996        0.6219182691
 H          6.6435053709       -2.9214150596        0.6690126095
 H          7.8573042708       -1.6586862194        0.8143417189
 C          6.0171600710       -1.1692166392        1.7515622489
 H          6.4854388711       -1.4446345288        2.7002249990
 H          6.0928875209       -0.0835093692        1.6522527885
 C          4.5323295610       -1.5413853992        1.8502890793
 H          4.1536385311       -1.1487792588        2.7986942392
 H          4.4248696610       -2.6280508392        1.8614384597
 H          6.1629758005       -3.1960222106       -1.8191282503
 H          5.3797528004       -1.8001729609       -2.5710665207
 H          4.4574214208       -3.3422516300       -0.1133853100
 H          3.6421394606       -3.1760089906       -1.6799285899
 O          2.7543535605       -0.9070378606       -1.4140823107
 C          2.0503567205        0.2661498895       -1.1788721011
 O          1.3839663803        0.6698865391       -2.1503271612
 O          2.9941900609        0.7801305209        2.2812430786
 C          1.3783814506        2.1296051801        0.3541867183
 C         -0.0982606394        1.9262798999        0.1163567786
 C         -0.9041616995        2.8780145896       -0.4953800517
 C         -2.2538543596        2.6372499695       -0.6855730514
 C         -2.8303382795        1.4514703796       -0.2699348509
 C         -2.0345972693        0.4926492899        0.3431409194
 C         -0.6851250793        0.7409331901        0.5409804091
 H         -0.0687297592       -0.0103717597        1.0204418393
 N         -2.6092621292       -0.7137798199        0.7798105500
 S         -3.5964756593       -1.5626990704       -0.2819977396
 O         -3.5085262392       -2.9418031302        0.1480287210
 O         -3.2597373695       -1.2945483109       -1.6603959197
 C         -5.2268480593       -0.9463734603        0.0844807204
 C         -5.9909653595       -0.3750645508       -0.9139959097
 C         -7.2567517094        0.0967745393       -0.6019855397
 C         -7.7335883392       -0.0119330102        0.6953105904
 C         -6.9550025791       -0.5920290898        1.6858431405
 C         -5.6891298391       -1.0655121598        1.3805467305
 H         -5.0538719190       -1.5263170595        2.1183921506
 H         -7.3293945889       -0.6761714494        2.6933074106
 H         -8.7182294292        0.3568111699        0.9357443804
 H         -7.8636766996        0.5468777690       -1.3710681998
 H         -5.5770729796       -0.3092743711       -1.9078720698
 H         -1.9501719391       -1.3374197297        1.2230001201
 H         -3.8786888295        1.2562728795       -0.4244990806
 H         -2.8659202397        3.3844749393       -1.1670932016
 H         -0.4734809496        3.8066225795       -0.8319820821
 H          1.5258108707        2.3384094005        1.4249045682
 C          1.9642455604        3.2733401198       -0.4486494523
 C          1.9383884605        4.6723468000        0.0883710272
 C          3.2303759205        3.9160460500        0.0305079673
 H          3.9701097304        4.2070635498       -0.7001893029
 H          3.6515355306        3.5486028604        0.9550869874
 H          1.7929486803        5.4874454997       -0.6044205131
 H          1.4875917506        4.8281625004        1.0566777372
 H          1.8490191703        3.1292970893       -1.5173914422
