  62
        -98.93892603
 C         -1.5396566370       -1.3001284933       -0.7269592653
 C         -2.7394980320       -0.9701371593       -0.0496389934
 C         -3.3232391977        0.3604744563       -0.2981004887
 C         -2.7010117990        1.1837969596       -1.1616446996
 C         -3.0666869706        2.5950296346       -1.5369561499
 C         -2.6689708123        3.6056892981       -0.4497347418
 C         -3.0108563082        3.1801646063        0.9757702180
 H         -2.5036007703        2.2380020440        1.1955152781
 H         -2.5920873900        3.9296308036        1.6532951562
 C         -4.5016216999        3.0518802842        1.2823099591
 H         -4.5927086478        2.8305337824        2.3488528957
 H         -4.9859520511        4.0140362536        1.1004559542
 C         -5.2608314010        1.9723768855        0.5073486555
 H         -5.4765224318        2.2968326846       -0.5070364044
 H         -6.2269740800        1.8377157127        1.0025472557
 C         -4.5872541613        0.6037816150        0.4907159312
 H         -4.3599838843        0.3039730082        1.5202804100
 H         -5.3107635803       -0.1366023797        0.1280666089
 H         -1.5853787018        3.7432943454       -0.4964745461
 H         -3.1448680359        4.5622821424       -0.6734181585
 H         -2.5141523378        2.8314449771       -2.4490607673
 H         -4.1267293735        2.6629919071       -1.7624365455
 O         -1.5622282544        0.8197270519       -1.8096320197
 C         -0.9324665758       -0.3913104486       -1.5912538930
 O          0.1275034160       -0.5177665798       -2.2377739084
 H          1.1029759183       -0.8768411564       -0.0860347190
 C          0.9799628628       -1.4911904752        0.7894121352
 C          0.0040742782       -2.4779107248        0.8034449137
 C         -0.1282904837       -3.2730480573        1.9347012331
 C          0.6841032117       -3.0657993016        3.0357258488
 C          1.6133753724       -2.0421617350        3.0398870773
 C          1.7548802906       -1.2409467806        1.9107587141
 N          2.6756648243       -0.1839312155        1.8962365265
 S          2.3199585275        1.3043078608        1.1943797437
 O          2.8113963194        2.2814704468        2.1472372382
 O          0.9269241397        1.4101415936        0.8382671243
 C          3.3855377537        1.3444895136       -0.2325072232
 C          4.7030322414        1.7100788238       -0.0251982178
 C          5.5738011796        1.7359659584       -1.1011792998
 C          5.1160747480        1.3955281486       -2.3655610468
 C          3.7926761244        1.0327481242       -2.5575410038
 C          2.9144227563        1.0048337332       -1.4837667249
 H          1.8814495164        0.7222543091       -1.6198072845
 H          3.4283822316        0.7664424902       -3.5370749216
 H          5.7918948300        1.4150103632       -3.2060562520
 H          6.6028216553        2.0210225592       -0.9525834614
 H          5.0112639109        1.9820606397        0.9707064871
 H          3.1616586779       -0.0498565898        2.7712943945
 H          2.2216850314       -1.8553132018        3.9120972677
 H          0.5744554609       -3.6898961251        3.9097107395
 H         -0.8878072021       -4.0403971980        1.9574477399
 C         -0.9193357219       -2.6437126067       -0.3818591024
 H         -1.7569214391       -3.2795993371       -0.0624734925
 C         -0.2074295320       -3.3285057577       -1.5300429900
 C         -0.0578503559       -4.8192730960       -1.5068231927
 C         -0.9947984810       -4.1747793335       -2.4829306635
 H         -0.7257078520       -4.1564325272       -3.5280845479
 H         -2.0570057582       -4.2666773042       -2.3080743357
 H          0.8585405733       -5.2489266512       -1.8807016324
 H         -0.4863906335       -5.3538106519       -0.6727359525
 H          0.6068765304       -2.7461687264       -1.9399111117
 O         -3.3103488225       -1.7647766405        0.7479235141
