  62
        -98.93662330
 C         -1.4080427475       -1.1357208647       -0.0461311420
 C         -2.7415490465       -1.6124343793       -0.0429694835
 C         -3.7737578883       -0.6914299248        0.4644234441
 C         -3.3983833047        0.5105091271        0.9342055738
 C         -4.2861397243        1.6148443982        1.4376877011
 C         -4.6203453141        2.6004279611        0.3050887967
 C         -5.8421165307        2.2271480118       -0.5335559904
 H         -6.7450384198        2.3698836598        0.0638936573
 H         -5.8893002213        2.9282754268       -1.3700449254
 C         -5.8447884816        0.8002322734       -1.0885969476
 H         -6.5303084090        0.7724502355       -1.9379546283
 H         -4.8521050372        0.5507802675       -1.4680765662
 C         -6.2893849199       -0.2483653631       -0.0579521455
 H         -6.7327120269        0.2599743126        0.7981968412
 H         -7.0770564513       -0.8687300015       -0.4907120746
 C         -5.1874191342       -1.2044500534        0.4233965869
 H         -5.1472295237       -2.0760326001       -0.2377203084
 H         -5.4514617604       -1.5811028468        1.4173922714
 H         -4.7978763848        3.5864903260        0.7389951408
 H         -3.7417787632        2.6800010327       -0.3401573365
 H         -5.1887303613        1.2106436265        1.8862713788
 H         -3.7183238316        2.1451809633        2.2047722074
 O         -2.0986149655        0.9090170234        0.9660127895
 C         -1.0696295810        0.1104031447        0.4851868175
 O          0.0573475563        0.6207016492        0.5994214724
 O         -3.0603583015       -2.7623173955       -0.4506301837
 C         -0.3297851224       -2.0542035754       -0.5929224003
 C          0.8592746624       -2.0653512934        0.3323312110
 C          0.7195229768       -2.6308604444        1.5971220270
 C          1.7728942424       -2.6318387523        2.4903534508
 C          2.9857535653       -2.0631782427        2.1433740242
 C          3.1362164538       -1.4998233165        0.8819286301
 C          2.0798556039       -1.5111416322       -0.0180232605
 H          2.2204596347       -1.0621273240       -0.9861706809
 N          4.3608545406       -0.9366842712        0.5006167757
 S          4.4610405215        0.3172751604       -0.5923008386
 O          4.1930249030       -0.1634647521       -1.9255951316
 O          5.7922502408        0.8499230573       -0.3809933697
 C          3.2607712648        1.5479553639       -0.1216070466
 C          2.4540829773        2.1037086407       -1.0908655420
 C          1.5608179847        3.0985381302       -0.7313177059
 C          1.4891916559        3.5168261171        0.5865889559
 C          2.3077110146        2.9489276533        1.5491599457
 C          3.2054400977        1.9568448358        1.1946571510
 H          3.8539953097        1.4999141241        1.9247833366
 H          2.2417880598        3.2709978785        2.5762962157
 H          0.7836472892        4.2834218768        0.8669633127
 H          0.9164723796        3.5350633128       -1.4785925113
 H          2.5322342528        1.7410346855       -2.1035515625
 H          5.0479639368       -0.8553205718        1.2346875932
 H          3.8087728326       -2.0552042181        2.8416290397
 H          1.6488490145       -3.0717459925        3.4684966575
 H         -0.2333566384       -3.0615448420        1.8738190231
 H         -0.7863038111       -3.0579678208       -0.5776604229
 C          0.0477458305       -1.7694327814       -2.0388475694
 C         -0.9664354636       -1.2582778072       -3.0163634295
 C          0.1630730062       -0.3769048174       -2.5791750428
 H          0.9578204716       -0.1703813722       -3.2818776959
 H         -0.0474018345        0.4397550778       -1.9060459617
 H         -0.9559762316       -1.6522528794       -4.0215046247
 H         -1.9565978808       -1.0437743049       -2.6415214095
 H          0.7600619950       -2.4952477165       -2.4206608003
