  62
        -98.93838660
 C         -2.1873032496       -0.8434276602       -0.1809784499
 C         -3.0390143596       -0.5015137498        0.9018688500
 C         -3.8485596296        0.7183774902        0.7571932995
 C         -3.7347143995        1.4511106298       -0.3632713307
 C         -4.4186363394        2.7483437698       -0.7161268911
 C         -5.9062210394        2.8842433799       -0.3652753313
 C         -6.7169584094        1.5838663799       -0.4659165210
 H         -7.6027052794        1.7646366298       -1.0776587611
 H         -6.1273147794        0.8136685698       -0.9660880207
 C         -7.1840617196        1.0648932004        0.8960764791
 H         -8.0286143196        0.3887598504        0.7431908993
 H         -7.5443684296        1.9092958606        1.4876322889
 C         -6.1336739797        0.3016123106        1.7019110095
 H         -6.5548993798        0.0886310409        2.6872578695
 H         -5.9291119297       -0.6611546796        1.2260114298
 C         -4.7887835497        1.0231204006        1.8879500994
 H         -4.9292777996        2.0936785906        2.0158775190
 H         -4.3145884697        0.6244472908        2.7888050995
 H         -6.3229640793        3.6276561997       -1.0469582415
 H         -6.0077408995        3.2898267902        0.6402922986
 H         -3.8620818994        3.5633881699       -0.2436651313
 H         -4.2857907693        2.8542505094       -1.7957181311
 O         -2.8973682594        1.0939032395       -1.3760698405
 C         -2.1090649794       -0.0447295505       -1.3202119401
 O         -1.4125569494       -0.2100816208       -2.3431291100
 H          0.5526768905       -0.9215910207       -1.5518660496
 C          0.9124705805       -1.1331117004       -0.5560245295
 C          0.0649542304       -1.7403321001        0.3598330006
 C          0.5331829702       -1.9667579397        1.6490839807
 C          1.8179027302       -1.5976334697        2.0072945807
 C          2.6587637303       -0.9915494500        1.0910593006
 C          2.1948070404       -0.7478643604       -0.1948276495
 N          3.0347202205       -0.1130243707       -1.1304068697
 S          3.6916178506        1.3666971294       -0.6761081900
 O          2.8612153605        2.0401053598        0.2967614597
 O          3.9396558707        2.0748216391       -1.9131498702
 C          5.2533079105        0.9198044596        0.0551448702
 C          6.1541249005        0.2168094593       -0.7209416995
 C          7.3740130505       -0.1424732006       -0.1707737793
 C          7.6718376104        0.2072051698        1.1380405506
 C          6.7585759003        0.9166833101        1.9028169504
 C          5.5359379904        1.2787217400        1.3584743101
 H          4.7925870204        1.8260797702        1.9161522399
 H          6.9920331703        1.1882471104        2.9197808403
 H          8.6214774203       -0.0746992001        1.5646000308
 H          8.0868013905       -0.6936905508       -0.7626787791
 H          5.8840408106       -0.0304873310       -1.7339455894
 H          2.6097104906       -0.0333868609       -2.0440728697
 H          3.6583930903       -0.6959244200        1.3647711106
 H          2.1678975601       -1.7811624794        3.0116576908
 H         -0.1264282698       -2.4178978495        2.3761304408
 C         -1.3503651596       -2.1031957802       -0.0218298794
 H         -1.7981049097       -2.6367341599        0.8272180707
 C         -1.3926461696       -3.0105802805       -1.2350444392
 C         -1.0121105796       -4.4510669405       -1.0760339287
 C         -2.4428785496       -4.0757975905       -1.3163945689
 H         -2.8813507795       -4.2930023308       -2.2788739589
 H         -3.1373016697       -4.1570284302       -0.4928413590
 H         -0.4648188096       -4.9297012807       -1.8733665385
 H         -0.7363297297       -4.7874284802       -0.0881681586
 H         -1.1197839895       -2.5150168208       -2.1575127293
 O         -3.1174854498       -1.1906975895        1.9529756802
