  62
        -98.94529607
 C         -1.7366526254       -1.1287930068       -0.7728554995
 C         -2.8621584050       -0.6078421618       -0.0826461393
 C         -3.2276204990        0.7829906577       -0.3716568137
 C         -2.5084215546        1.4750335593       -1.2730233118
 C         -2.7377716408        2.9124042706       -1.6387658400
 C         -1.8783244631        3.8475149523       -0.7775842862
 C         -1.9615451218        3.5587630405        0.7214709157
 H         -1.4930982723        2.5913982837        0.9223301152
 H         -1.3513729160        4.3098105152        1.2292803720
 C         -3.3846067284        3.5816299035        1.2975964175
 H         -3.3677719758        4.1335223283        2.2399040575
 H         -4.0489685913        4.1185750324        0.6191042861
 C         -3.9759752031        2.2035269565        1.6015127228
 H         -4.8681536097        2.3451755331        2.2177445825
 H         -3.2595389859        1.6225512361        2.1888319986
 C         -4.3874783846        1.3686443480        0.3821870565
 H         -4.9728376504        0.5175232356        0.7424378984
 H         -5.0186648796        1.9664337264       -0.2785344654
 H         -2.1862579271        4.8771277219       -0.9713904572
 H         -0.8339768512        3.7384993161       -1.0798652562
 H         -3.7922039478        3.1502840407       -1.5117064537
 H         -2.4668845005        3.0481548709       -2.6874208551
 O         -1.4555595934        0.9406791919       -1.9344863042
 C         -1.0086855741       -0.3459380727       -1.6674965718
 O          0.0200469298       -0.6462887312       -2.3066086338
 O         -3.5358043520       -1.2867419459        0.7401529506
 C         -1.3173603924       -2.5400012046       -0.3939354032
 C         -0.3884471059       -2.4768614433        0.7970449289
 C         -0.6276230630       -3.2303629588        1.9391167505
 C          0.1927934288       -3.1039507320        3.0465145264
 C          1.2358358724       -2.1963562983        3.0475871495
 C          1.4839819659       -1.4378022278        1.9077351696
 C          0.7008466495       -1.6173713419        0.7788336941
 H          0.9095979938       -1.0411409799       -0.1064502035
 N          2.5137272789       -0.4857136452        1.8884725364
 S          2.2911579805        1.0325206598        1.1927296555
 O          2.8473376538        1.9630266582        2.1566263470
 O          0.9170513669        1.2525935662        0.8174465519
 C          3.3770545682        0.9888436750       -0.2183403804
 C          2.8967660298        0.7020278484       -1.4792546701
 C          3.7902317628        0.6582851691       -2.5398420367
 C          5.1378793749        0.8983237443       -2.3251145246
 C          5.6050969185        1.1857515342       -1.0510641587
 C          4.7190101053        1.2309513235        0.0116946358
 H          5.0352124260        1.4649935231        1.0147290706
 H          6.6534619123        1.3740650722       -0.8846687945
 H          5.8256515426        0.8624626298       -3.1553023418
 H          3.4185842487        0.4327800919       -3.5268152198
 H          1.8451669207        0.5125818740       -1.6323079732
 H          3.0051782745       -0.3965542302        2.7663840070
 H          1.8501425987       -2.0652753433        3.9257811454
 H          0.0001284466       -3.6957010623        3.9286055326
 H         -1.4750438050       -3.8991987536        1.9655515412
 H         -2.2392033795       -3.0414012682       -0.0668359314
 C         -0.7047748971       -3.3498892734       -1.5174443177
 C         -0.7740430514       -4.8455182055       -1.4563565171
 C         -1.6002097987       -4.0969197548       -2.4578661801
 H         -1.3239610973       -4.1445896592       -3.5001904019
 H         -2.6656832882       -4.0292528613       -2.2922043526
 H          0.0727611280       -5.4131198695       -1.8097896006
 H         -1.2817814139       -5.2908805663       -0.6143680202
 H          0.1888203455       -2.9034056906       -1.9324940235
