  62
        -98.93750673
 C         -1.3748136792       -1.6471846284       -0.1747049157
 C         -1.4890523729       -0.2409566772       -0.0880322843
 C         -2.8582101736        0.3023310220        0.0122179553
 C         -3.8984313411       -0.5495880648        0.0475894754
 C         -5.3717642480       -0.2384502830        0.1321321453
 C         -5.7919892388        0.8566560871        1.1245786929
 C         -6.2632002455        2.1448420315        0.4470347977
 H         -6.8515357047        1.8790009546       -0.4337691079
 H         -6.9269995827        2.6769508295        1.1322717934
 C         -5.1510390838        3.1095526555        0.0393938785
 H         -4.7244483580        3.5667773475        0.9347370671
 H         -5.6079109417        3.9096152880       -0.5479479045
 C         -4.0138654223        2.4898033045       -0.7752907160
 H         -4.4094039511        1.7879177286       -1.5086251259
 H         -3.5282372356        3.2930050652       -1.3332134438
 C         -2.9440051929        1.8022806612        0.0861586260
 H         -1.9488603454        2.1453719892       -0.2136654052
 H         -3.0609531343        2.0978072909        1.1325515949
 H         -4.9748618924        1.0667736570        1.8127744654
 H         -6.6209050978        0.4666373806        1.7176387857
 H         -5.7293596739        0.0126601394       -0.8697329324
 H         -5.8459400553       -1.1849794209        0.4017701988
 O         -3.7352370816       -1.9035551239       -0.0190359642
 C         -2.4860367333       -2.4854301270       -0.1357902014
 O         -2.4968914177       -3.7324660427       -0.1857644457
 H          2.5242832205       -1.1480969577       -0.4432011099
 C          2.1371271575       -1.2244128898        0.5579881484
 C          0.8954148736       -1.7901712389        0.7958691462
 C          0.4559861098       -1.9050249612        2.1127829353
 C          1.2309736379       -1.4438429675        3.1584622398
 C          2.4548373888       -0.8447128010        2.9142671616
 C          2.9075976260       -0.7373992419        1.6055115233
 N          4.1473038807       -0.1486955642        1.3250258479
 S          4.4091265124        0.6683905939       -0.1063622776
 O          4.6057036455       -0.2705441689       -1.1832648265
 O          5.5395144575        1.5264726254        0.1842213971
 C          2.9673298854        1.6707305727       -0.4166002007
 C          2.3445051008        1.5988286385       -1.6445908137
 C          1.2530424425        2.4137846200       -1.8925587312
 C          0.8039990304        3.2806779871       -0.9106623265
 C          1.4380187546        3.3394651478        0.3196232104
 C          2.5324464353        2.5300533669        0.5713935062
 H          3.0489150311        2.5592803711        1.5173838334
 H          1.0774531139        4.0084591219        1.0847199521
 H         -0.0504669942        3.9106145137       -1.1039385512
 H          0.7498729352        2.3615031374       -2.8453498339
 H          2.7216914312        0.9042092376       -2.3790995632
 H          4.6023810956        0.2965014057        2.1076076428
 H          3.0545811230       -0.4681442128        3.7286531575
 H          0.8754217818       -1.5389413653        4.1735282782
 H         -0.5094830213       -2.3550584446        2.3023168730
 C         -0.0006629622       -2.2759485006       -0.3162762554
 H         -0.1422872199       -3.3606734098       -0.2040878690
 C          0.5512116381       -1.9919495083       -1.6977834651
 C          1.5516912994       -2.9182411361       -2.3186306546
 C          0.1489022172       -2.8677489923       -2.8441465309
 H         -0.0268909839       -2.4106224800       -3.8063749072
 H         -0.5098317974       -3.6964514648       -2.6279582864
 H          2.3466225167       -2.4959268028       -2.9154357329
 H          1.8487135428       -3.7863675824       -1.7495937777
 H          0.6503214179       -0.9295564640       -1.8918427715
 O         -0.4967774497        0.5310226982       -0.0978354384
