  62
        -98.94147502
 C          1.7455585795        0.8917722405        0.2159462602
 C          1.9737600695       -0.4875611195       -0.0371842499
 C          3.2735318496       -0.8425281895       -0.6195316196
 C          4.1529081697        0.1356303905       -0.9011311793
 C          5.5324101299       -0.0798236995       -1.4512602189
 C          6.5645643196       -0.2209297396       -0.3238232087
 C          6.1587682392       -1.2164489797        0.7629598111
 H          6.9750534590       -1.2575805398        1.4874514313
 H          5.2818985391       -0.8316669397        1.2886588909
 C          5.8597909493       -2.6313538197        0.2479727009
 H          6.3448995891       -3.3535239397        0.9081033410
 H          6.2894320696       -2.7622787696       -0.7458397890
 C          4.3733545393       -2.9913542396        0.2091789505
 H          4.2894855893       -4.0689127896        0.0449467703
 H          3.9184216691       -2.7714941097        1.1782060304
 C          3.5458748896       -2.2973622795       -0.8802767597
 H          4.0299595299       -2.4300390394       -1.8499950396
 H          2.5665173896       -2.7831734194       -0.9146226200
 H          6.7037226795        0.7571473303        0.1425788215
 H          7.5161497497       -0.5260879196       -0.7629868685
 H          5.5339136400       -0.9725919994       -2.0736485790
 H          5.7955336401        0.7819988306       -2.0668867788
 O          3.8937416997        1.4454332205       -0.6693151792
 C          2.6957407396        1.8617193705       -0.1043822395
 O          2.6273803496        3.0978275105        0.0452939606
 H         -1.9504439906        0.1038305407        0.2394672291
 C         -1.7812658704        0.9948433407       -0.3452729407
 C         -0.5990152904        1.7031522406       -0.1883618304
 C         -0.3874929601        2.8368988407       -0.9657057402
 C         -1.3449859699        3.2461995808       -1.8753636004
 C         -2.5350096799        2.5524583009       -2.0100734608
 C         -2.7561286301        1.4187190108       -1.2374687010
 N         -3.9451031901        0.6875156109       -1.3563694913
 S         -4.6456309405       -0.0192762792       -0.0109566216
 O         -6.0365774604       -0.1836402091       -0.3757182720
 O         -4.3882656508        0.7444087607        1.1872040385
 C         -3.8842450006       -1.6239339592        0.0949540084
 C         -3.3094607209       -2.0348623294        1.2807148685
 C         -2.7363141410       -3.2947299694        1.3474520586
 C         -2.7498254707       -4.1177589393        0.2324542685
 C         -3.3353912304       -3.6921189892       -0.9503085516
 C         -3.9102170603       -2.4339040591       -1.0228625216
 H         -4.3770779701       -2.0692815990       -1.9226439517
 H         -3.3427422102       -4.3362718191       -1.8148878517
 H         -2.2991998408       -5.0962040993        0.2865706985
 H         -2.2774626013       -3.6259437995        2.2652915587
 H         -3.3154669811       -1.3610204295        2.1235047486
 H         -4.6326212999        1.0851476810       -1.9792658315
 H         -3.2874446597        2.8845026410       -2.7093630810
 H         -1.1691060797        4.1251325609       -2.4773162603
 H          0.5331975599        3.3881478307       -0.8523622199
 C          0.4078825693        1.2463112405        0.8404421099
 H          0.0334187492        0.3045309705        1.2647207697
 C          0.4984747791        2.2678739304        1.9586659900
 C         -0.6711004712        2.4236945403        2.8827441097
 C          0.5983959587        1.7992334902        3.3776120200
 H          1.2158855985        2.3602210301        4.0630809302
 H          0.6075867486        0.7334062302        3.5537316799
 H         -0.9242181112        3.4146877003        3.2275446097
 H         -1.5300758211        1.7891700204        2.7178964794
 H          1.0465634792        3.1598434404        1.6850652502
 O          1.1255187794       -1.3828634295        0.2206570798
