  62
        -98.94385194
 C          1.3027472666        1.4199725039        0.6211589842
 C          2.0927152021        1.0126065521       -0.4826195744
 C          3.1115834738       -0.0099351621       -0.2001483118
 C          3.2267330988       -0.5093816208        1.0426352001
 C          4.1873898261       -1.5870867338        1.4516690812
 C          3.5468581728       -2.9773948183        1.3407120682
 C          2.8512697428       -3.2409403498        0.0044326519
 H          2.4873530243       -4.2710723751        0.0288117303
 H          1.9659147078       -2.6043078664       -0.0769821715
 C          3.7441991293       -3.0458658706       -1.2290023216
 H          3.5686605670       -3.8756055101       -1.9171210067
 H          4.7942474082       -3.0840198931       -0.9352738819
 C          3.4810617414       -1.7580114321       -2.0119189093
 H          2.4089686662       -1.6646252234       -2.2065869668
 H          3.9846378725       -1.8397405226       -2.9791278061
 C          3.9662318462       -0.4621162253       -1.3498426366
 H          5.0076444072       -0.5727484189       -1.0407364478
 H          3.9102857612        0.3339221869       -2.0981684617
 H          4.3238527510       -3.7276630464        1.5011778313
 H          2.8028099020       -3.0825662263        2.1339395125
 H          5.0744343090       -1.5332907744        0.8234676929
 H          4.4768586758       -1.4138725888        2.4898670249
 O          2.4373464878       -0.1116529105        2.0727227242
 C          1.4336438461        0.8232676105        1.8767958473
 O          0.7300398711        1.0354181208        2.8858998214
 H         -0.6049713024       -0.0566342409       -0.1006466514
 C         -1.0204431285        0.6363169734       -0.8153484214
 C         -0.7004745492        1.9837411159       -0.7165704752
 C         -1.2076906893        2.8538979806       -1.6719260157
 C         -2.0039668188        2.3729301733       -2.6980902889
 C         -2.3231334263        1.0302861343       -2.7881521599
 C         -1.8163517739        0.1507814171       -1.8374371158
 N         -2.0909381803       -1.2229350647       -1.8900920366
 S         -2.1462630665       -2.1273784692       -0.4888609869
 O         -0.8205412632       -2.3315078932        0.0392302376
 O         -2.8632247198       -3.3254356980       -0.8710552672
 C         -3.1451480425       -1.1687376385        0.6371640675
 C         -4.4778360086       -0.9998337476        0.3124939555
 C         -5.2792554013       -0.2278276296        1.1365269045
 C         -4.7362531503        0.3657916858        2.2663748638
 C         -3.3997789775        0.1817115875        2.5831158004
 C         -2.5939972669       -0.5935980622        1.7634342590
 H         -1.5496825284       -0.7466867272        1.9896271688
 H         -2.9683099625        0.6404412972        3.4587913975
 H         -5.3568509739        0.9730453628        2.9061248115
 H         -6.3206277347       -0.0880565104        0.8955784761
 H         -4.8654783321       -1.4862365202       -0.5677475431
 H         -2.7803303444       -1.5076124235       -2.5688840801
 H         -2.9411544080        0.6611474439       -3.5919184031
 H         -2.3843202382        3.0574442554       -3.4410640645
 H         -0.9643858144        3.9027131895       -1.6292235415
 C          0.1548246560        2.4016067883        0.4563610565
 H         -0.4572914137        2.2662747696        1.3646523041
 C          0.5609903253        3.8679175786        0.4288667596
 C          1.8914123925        4.3169603560        0.9538933663
 C          1.5999154974        4.3949791562       -0.5131219140
 H          1.4456931383        5.3700214106       -0.9520272865
 H          2.0764449078        3.6859364788       -1.1707063480
 H          2.5769086046        3.5556487071        1.2982292972
 H          1.9345881919        5.2333198500        1.5236217993
 H         -0.2774154263        4.5239619084        0.6416480067
 O          1.9628812898        1.4677409157       -1.6481295877
