  62
        -98.93877938
 C         -1.8489427507       -0.7014570003        0.3153950097
 C         -2.1788608008        0.5684933900       -0.2257957997
 C         -3.5573457108        0.7431020701       -0.6990033497
 C         -4.4133896107       -0.2909819900       -0.6134127302
 C         -5.8607187107       -0.2426586200       -1.0075600802
 C         -6.7471781308        0.1606729094        0.1790381999
 C         -6.2563597809        1.4029310290        0.9224948005
 H         -6.9738277109        1.6097124586        1.7195947106
 H         -5.3006641609        1.1770191789        1.4009663705
 C         -6.0980826010        2.6491396395        0.0402213812
 H         -6.5318680611        3.5048825192        0.5618670216
 H         -6.6559151609        2.5191895799       -0.8878599289
 C         -4.6488536510        3.0138733098       -0.2868484886
 H         -4.0639094010        3.0537758394        0.6353876914
 H         -4.6409289411        4.0162052300       -0.7232189181
 C         -3.9323052809        2.0811567203       -1.2713917190
 H         -4.5404956308        1.9579597007       -2.1699197291
 H         -2.9901358509        2.5584507605       -1.5559897388
 H         -7.7604364008        0.3312508894       -0.1893618700
 H         -6.7783751607       -0.6714713210        0.8862168795
 H         -5.9850927107        0.4652502404       -1.8248057099
 H         -6.1572695406       -1.2354579999       -1.3501796507
 O         -4.0603905906       -1.4986193803       -0.1092016508
 C         -2.7750064106       -1.7444120104        0.3663936091
 O         -2.6172511005       -2.9037127406        0.7879860386
 H          2.0169355793        0.0587442101        0.1865580302
 C          1.7359339794       -0.7717601596       -0.4417325903
 C          0.4917544294       -1.3619885998       -0.2791423106
 C          0.1327238295       -2.4101295794       -1.1198512511
 C          1.0077069896       -2.8541266288       -2.0946864413
 C          2.2604411895       -2.2822337387       -2.2331184010
 C          2.6294131094       -1.2355865590       -1.3968453705
 N          3.8879423394       -0.6291779089       -1.5040344201
 S          4.7063597593       -0.1838349695       -0.1104994999
 O          6.0983753193       -0.1478240391       -0.5033153998
 O          4.3755708493       -1.0534674100        0.9933653597
 C          4.1532913291        1.4754650903        0.2172192809
 C          3.6168918291        1.7891051297        1.4502223610
 C          3.1981207389        3.0885995495        1.6880836317
 C          3.3245595889        4.0467069900        0.6943285021
 C          3.8705070189        3.7167697007       -0.5370216780
 C          4.2907434391        2.4194451908       -0.7810023986
 H          4.7221391891        2.1254955913       -1.7232630088
 H          3.9663955789        4.4657792710       -1.3065346376
 H          2.9938571088        5.0561439199        0.8814320926
 H          2.7716429589        3.3459570990        2.6444448318
 H          3.5303204391        1.0123979993        2.1943316407
 H          4.5040557494       -1.0418998985       -2.1889834403
 H          2.9469914796       -2.6419615382       -2.9844746711
 H          0.7168799197       -3.6660665486       -2.7443694917
 H         -0.8324829104       -2.8781345195       -0.9958456614
 C         -0.4242158307       -0.8664850604        0.8103512496
 H         -0.0970436108        0.1547865595        1.0649986001
 C         -0.3070722106       -1.7013749910        2.0777115292
 C          0.2113198595       -3.1042516609        2.1001245286
 C          1.0385060594       -1.9953746111        2.6742284591
 H          1.1483115693       -1.9373545617        3.7469638192
 H          1.9198036594       -1.6932938008        2.1259247093
 H          0.5272989296       -3.5453669205        1.1679214484
 H         -0.2665237705       -3.8042586613        2.7682685582
 H         -1.1069464807       -1.4798080614        2.7777653093
 O         -1.3520527109        1.5168499001       -0.3018033892
