  62
        -98.94967053
 C         -1.5028401008       -1.0576617467        0.0282956044
 C         -2.5151864365       -0.6237113540        0.9144338659
 C         -3.0215021281        0.7338457054        0.6896440088
 C         -2.4865053095        1.4933982135       -0.2839986877
 C         -2.8682538265        2.9123895922       -0.6082278577
 C         -4.0935459886        3.0398608785       -1.5239756925
 C         -5.4343099720        2.7135747655       -0.8649698616
 H         -5.5343549698        3.2902410565        0.0550883768
 H         -6.2170070249        3.0499383429       -1.5477759981
 C         -5.6461313758        1.2228560199       -0.5664659716
 H         -6.6465667897        0.9254826709       -0.8883564351
 H         -4.9333207800        0.6308335698       -1.1449080420
 C         -5.5156002027        0.8474906124        0.9096322849
 H         -6.3061907628        1.3353600438        1.4839925800
 H         -5.6498769955       -0.2332554478        1.0018089447
 C         -4.1628476152        1.2106402289        1.5365819746
 H         -4.0872504094        0.7115656646        2.5060969269
 H         -4.0958495799        2.2872227535        1.6941671406
 H         -4.1283894021        4.0727423494       -1.8779185269
 H         -3.9476821773        2.3947256703       -2.3933111532
 H         -3.0417324964        3.4630695868        0.3170023034
 H         -2.0071792657        3.3545608630       -1.1144673358
 O         -1.4955857701        1.0489593484       -1.0997006713
 C         -0.9817983546       -0.2295546605       -0.9649331947
 O         -0.0811441579       -0.5104822485       -1.7803225613
 O         -2.9678207774       -1.3352358448        1.8532925452
 C         -0.9156185613       -2.4465666071        0.1944545237
 C          0.5807950525       -2.3657814446        0.3708021101
 C          1.4636645332       -3.2782333200       -0.1941737815
 C          2.8290911449       -3.1423004897       -0.0109571268
 C          3.3439543279       -2.0850199769        0.7165366021
 C          2.4682772014       -1.1731492988        1.2935968964
 C          1.1015079848       -1.3352848857        1.1431488196
 H          0.4376593106       -0.6162614081        1.6011450248
 N          2.9357419775       -0.0577422715        2.0230396648
 S          2.6285232783        1.4458224105        1.3434318440
 O          3.2735646257        2.3951166072        2.2261487143
 O          1.2126347565        1.6180250804        1.1468682225
 C          3.5025341932        1.4006797587       -0.2114533570
 C          4.7789064762        1.9293391978       -0.2603441182
 C          5.5028438156        1.8313969453       -1.4369791711
 C          4.9447966893        1.1972276450       -2.5371527506
 C          3.6651108915        0.6691438681       -2.4696224812
 C          2.9309372128        0.7673557037       -1.2966671222
 H          1.9304179620        0.3677109279       -1.2291459083
 H          3.2227923339        0.1753588858       -3.3200034985
 H          5.5081145600        1.1158835244       -3.4533578275
 H          6.4969241754        2.2450797570       -1.4916084093
 H          5.1687620877        2.4144315202        0.6201048254
 H          3.9180964193       -0.1127312509        2.2581067211
 H          4.4098039338       -1.9617075579        0.8365036611
 H          3.5014942991       -3.8585907072       -0.4575453345
 H          1.0815410568       -4.0950389124       -0.7844326394
 H         -1.3543528276       -2.8420939899        1.1233799443
 C         -1.3345432257       -3.3357615732       -0.9593464935
 C         -1.5483043714       -4.8046294325       -0.7503593186
 C         -2.7226662645       -3.9000367815       -0.9677589545
 H         -3.2526325602       -3.9538232152       -1.9068882466
 H         -3.3546736240       -3.6664536339       -0.1232783917
 H         -1.2743043790       -5.4836460215       -1.5436974268
 H         -1.3909331402       -5.1969687732        0.2429362321
 H         -0.9229063363       -3.0051060665       -1.9066208913
