  62
        -98.93136838
 C         -2.3333712832       -1.2128099369        0.0217358363
 C         -2.2169888918       -0.0475528353       -0.7706020281
 C         -2.8314706426        1.1874482280       -0.2368047947
 C         -3.4283998817        1.1539196652        0.9680114843
 C         -4.1430527684        2.2672537871        1.6858951459
 C         -5.5381466660        2.5490459872        1.1022696745
 C         -5.6114457155        2.5527496079       -0.4226702974
 H         -5.2496577343        1.5947695963       -0.8006773013
 H         -6.6644894382        2.6357919969       -0.7039629793
 C         -4.8544815454        3.6875876424       -1.1080578860
 H         -5.0471916518        3.6063236026       -2.1808274212
 H         -5.2595062727        4.6436992434       -0.7690225272
 C         -3.3396972568        3.7031475402       -0.8964832381
 H         -2.9184981708        4.4169457391       -1.6106985629
 H         -3.0866983430        4.0731222493        0.0934773655
 C         -2.6421244541        2.3711822959       -1.1553566652
 H         -2.9047371445        2.0184823036       -2.1592575729
 H         -1.5593237385        2.5478907466       -1.1836626970
 H         -5.8860455875        3.5084002587        1.4885566117
 H         -6.2162894568        1.7728100516        1.4648958484
 H         -4.2579085035        1.9470421640        2.7238550166
 H         -3.5297090961        3.1636434133        1.6841023475
 O         -3.4971581590        0.0118243302        1.7103667336
 C         -2.9566315878       -1.1782041101        1.2717644907
 O         -3.0970102857       -2.1304858295        2.0659238890
 H          0.2353112044       -0.8743404058       -1.0371371406
 C          0.5832811577       -1.6598883718       -0.3818704748
 C         -0.3101812297       -2.6365050696        0.0382341010
 C          0.1518856704       -3.6374292882        0.8833446581
 C          1.4729537136       -3.6550283312        1.2986018781
 C          2.3578885149       -2.6764643687        0.8819918495
 C          1.9032869096       -1.6720577330        0.0383766261
 N          2.7966505028       -0.6517439876       -0.3799640956
 S          3.1510489242        0.4810094160        0.8270850422
 O          3.5408908299       -0.2278493188        2.0188738351
 O          2.0551224984        1.4188320633        0.9671069609
 C          4.5661123971        1.2978906424        0.1159858065
 C          5.7812044508        0.6408279789        0.1396547199
 C          6.8835049542        1.2510078603       -0.4366717359
 C          6.7526027286        2.5002059559       -1.0254463223
 C          5.5261604225        3.1466330631       -1.0418659676
 C          4.4192286903        2.5407680540       -0.4677636294
 H          3.4476088271        3.0083579035       -0.4518239225
 H          5.4266411489        4.1180764657       -1.4989018010
 H          7.6120818807        2.9739060322       -1.4729447274
 H          7.8391483408        0.7522168621       -0.4252058784
 H          5.8365820915       -0.3247317473        0.6140458417
 H          2.4012805420       -0.1356411161       -1.1574814669
 H          3.3814321346       -2.6663511909        1.2176915200
 H          1.8155679264       -4.4373494196        1.9587771666
 H         -0.5374833666       -4.3924176181        1.2328328245
 C         -1.7563351178       -2.5626842708       -0.3795391066
 H         -2.3128599264       -3.2994932932        0.2205268051
 C         -1.9866965508       -2.8994128743       -1.8471687642
 C         -0.8825058915       -3.0889901722       -2.8400230880
 C         -1.6565600028       -4.2734834229       -2.3512125860
 H         -2.3473503926       -4.7595997281       -3.0231390704
 H         -1.1602291964       -4.9434163485       -1.6650584428
 H         -1.0513383905       -2.7347000369       -3.8455189350
 H          0.1359788368       -2.9741593971       -2.5039496960
 H         -2.8980284630       -2.4499084867       -2.2273200237
 O         -1.6329712229       -0.0079073448       -1.8862021634
