  62
        -98.94079387
 C         -2.5739810192       -1.3382709311        0.2640694910
 C         -2.7726968396       -0.4846295009       -0.8483103987
 C         -3.5755051997        0.7229928290       -0.5964395782
 C         -4.0600881993        0.9568806686        0.6357175820
 C         -4.8430847994        2.1723538285        1.0373919925
 C         -3.9213017893        3.2797881184        1.5664315225
 C         -2.7249943796        3.5764182988        0.6614755223
 H         -2.1684051596        4.3988160887        1.1166399223
 H         -2.0561600195        2.7116344788        0.6519667019
 C         -3.0951537600        3.9484456391       -0.7811744375
 H         -4.1415842801        4.2523150890       -0.8288909772
 H         -2.4922743502        4.8070019192       -1.0846413975
 C         -2.8400922702        2.8431783793       -1.8077633379
 H         -2.9163595705        3.2827808496       -2.8060399478
 H         -1.8178910501        2.4706712694       -1.6931101183
 C         -3.8033641601        1.6500456592       -1.7573211079
 H         -3.6377408403        1.0513547895       -2.6578176281
 H         -4.8339951601        2.0099166291       -1.7681146575
 H         -4.5128184294        4.1877031583        1.6974302429
 H         -3.5405471490        2.9769033182        2.5444981923
 H         -5.5400644091        1.8856822082        1.8266530226
 H         -5.4077678296        2.5340142986        0.1803524328
 O         -3.8490259690        0.1168539984        1.6803005617
 C         -3.0955236589       -1.0330527115        1.5253964913
 O         -2.9700897286       -1.7048805717        2.5683803611
 O         -2.3145886799       -0.6984078706       -2.0020301089
 C         -1.7602383191       -2.6233121510        0.1943137605
 C         -0.3007467591       -2.2965231009        0.3786577302
 C          0.4262393012       -2.8044827311        1.4478339699
 C          1.7506423113       -2.4447192410        1.6316152196
 C          2.3736175909       -1.5723513308        0.7570017596
 C          1.6529181406       -1.0562499706       -0.3122934401
 C          0.3300837406       -1.4235354607       -0.4984714298
 H         -0.2298753497       -1.0166273205       -1.3282547395
 N          2.2746536902       -0.1517779803       -1.2002205400
 S          2.7814742503        1.2966088896       -0.5067125998
 O          1.9722246106        1.6416181892        0.6407880005
 O          2.8072328199        2.2563197498       -1.5889312796
 C          4.4520725305        0.9511984096        0.0027560596
 C          5.3589992902        0.5622592099       -0.9638900807
 C          6.6639838104        0.2901362400       -0.5856373211
 C          7.0383720407        0.4136386297        0.7443067988
 C          6.1166166810        0.8082041694        1.7019893691
 C          4.8088874808        1.0803451693        1.3305379896
 H          4.0555066710        1.3834102291        2.0401379798
 H          6.4092806812        0.9037212492        2.7352834391
 H          8.0546295408        0.2012202597        1.0364626684
 H          7.3835221802       -0.0173138998       -1.3272157314
 H          5.0270111200        0.4837415402       -1.9856058706
 H          1.7002259600        0.0493064698       -2.0079844298
 H          3.4028444709       -1.2847542307        0.8983364994
 H          2.3027060915       -2.8450617412        2.4681696293
 H         -0.0603443485       -3.4673826213        2.1483686098
 H         -2.0829413088       -3.2116816413        1.0668219705
 C         -2.0576623694       -3.4465461708       -1.0529847196
 C         -1.0210764196       -3.8285182804       -2.0639027300
 C         -1.5741990293       -4.8645590407       -1.1357750001
 H         -2.2396218193       -5.6174657107       -1.5299679801
 H         -0.9328923690       -5.2132337208       -0.3401510404
 H         -1.3200045899       -3.8454521102       -3.1011198199
 H         -0.0054090296       -3.4996123304       -1.9096549802
 H         -3.0515596895       -3.2520405008       -1.4415175993
