  62
        -98.93430822
 C          2.0124758741        0.3211741076       -0.1937451199
 C          3.0856318806        1.2449286881       -0.2618636419
 C          4.3339984007        0.8427908869        0.3967476179
 C          4.3843965263       -0.3394873712        1.0368846430
 C          5.6046073448       -0.8993515639        1.7075899055
 C          6.4213319183       -1.7668756109        0.7396708502
 C          6.6957404951       -1.0986923612       -0.6076637942
 H          7.3039565685       -1.7898524031       -1.1952860051
 H          5.7506685962       -0.9705208209       -1.1404840587
 C          7.4106206432        0.2563832372       -0.5108585702
 H          7.8777110434        0.3595634071        0.4692092699
 H          8.2092958399        0.2846101346       -1.2550865275
 C          6.5132811940        1.4670120899       -0.7744835411
 H          5.9714629868        1.3237257570       -1.7127869964
 H          7.1537112691        2.3444517430       -0.8974522953
 C          5.4950559450        1.7943496634        0.3249233437
 H          6.0025916678        1.8561629955        1.2896446889
 H          5.0652722401        2.7744293705        0.0984668991
 H          7.3672237125       -2.0232962859        1.2202813657
 H          5.8710830012       -2.6927649098        0.5565114034
 H          6.2154634401       -0.0799845283        2.0815662155
 H          5.2822476389       -1.5146222236        2.5492274016
 O          3.3282564771       -1.1870949643        1.1062917785
 C          2.1188286607       -0.8930941769        0.4860434832
 O          1.2557455949       -1.7765691339        0.6292682261
 H         -1.2807996451       -1.2879413213       -0.4563645341
 C         -1.3245264359       -0.4366499563        0.1969585368
 C         -0.4232307260        0.6114526842        0.0970207750
 C         -0.5250885262        1.6508335123        1.0246470684
 C         -1.4866134997        1.6442869425        2.0145046367
 C         -2.4019119157        0.6084262256        2.0874527759
 C         -2.3149996535       -0.4295046691        1.1714030141
 N         -3.2512262529       -1.4884330692        1.1833859875
 S         -4.2926195332       -1.5382772623       -0.1265598542
 O         -5.2936966038       -2.5259749137        0.2087169197
 O         -3.5452490877       -1.7588130517       -1.3358779578
 C         -5.0286243814        0.0880062202       -0.1531368021
 C         -4.3435853047        1.1221606534       -0.7600483479
 C         -4.8753471098        2.4007788094       -0.7041896118
 C         -6.0752261892        2.6227124656       -0.0458882114
 C         -6.7523870846        1.5734477545        0.5569182173
 C         -6.2227035050        0.2939280827        0.5097462717
 H         -6.7154770304       -0.5518386453        0.9618005341
 H         -7.6867449471        1.7486199286        1.0655085611
 H         -6.4844676337        3.6197555781       -0.0040249684
 H         -4.3471562522        3.2162299513       -1.1715765959
 H         -3.4140645057        0.9138369064       -1.2650350834
 H         -3.7902583050       -1.5406787795        2.0367814107
 H         -3.1670597579        0.5989482969        2.8492954686
 H         -1.5336764697        2.4548517069        2.7254570360
 H          0.1832032447        2.4660428253        0.9661494006
 C          0.7116986347        0.7109060654       -0.8878260695
 H          0.8414200581        1.7844890455       -1.1008280141
 C          0.6336124230        0.0454669303       -2.2556171023
 C          0.4355979546       -1.4182130603       -2.5060602266
 C         -0.6074237126       -0.4338925181       -2.9459498431
 H         -0.6989271906       -0.2366209999       -4.0043618230
 H         -1.5505774663       -0.4267938216       -2.4237392598
 H          1.0513908601       -1.8887473676       -3.2600935727
 H          0.2352775892       -2.0592980861       -1.6623351931
 H          1.3669978673        0.5130898939       -2.9101131144
 O          2.9989770759        2.3588867713       -0.8458663021
