  62
        -98.93954787
 C         -2.5718969437       -0.7507087654        0.6908818819
 C         -3.0533116705       -0.2286220264       -0.5342475006
 C         -3.5893208999        1.1395779896       -0.4786370185
 C         -3.5913759451        1.8016886909        0.6926103875
 C         -4.0532027487        3.2176763313        0.8771087460
 C         -2.8923968972        4.2072833457        0.7034860761
 C         -2.0649023120        3.9740179664       -0.5607736531
 H         -1.2953655547        4.7482449455       -0.5931806118
 H         -1.5508678652        3.0131723747       -0.4805497562
 C         -2.8752493091        4.0045901908       -1.8641758982
 H         -3.8332919253        4.4970559396       -1.6937072561
 H         -2.3313017508        4.5995327029       -2.6007463059
 C         -3.1171433551        2.6311015046       -2.4932520912
 H         -2.1688226684        2.0942770549       -2.5810902205
 H         -3.5007194317        2.7836320904       -3.5055992208
 C         -4.1147630725        1.7270676443       -1.7580866275
 H         -5.0442180457        2.2717388833       -1.5801209384
 H         -4.3333033853        0.8762078540       -2.4099770063
 H         -3.3010137588        5.2192729001        0.6911467681
 H         -2.2300584940        4.1186209732        1.5677085618
 H         -4.8398676171        3.4338913632        0.1570779475
 H         -4.4579094433        3.3189772599        1.8854931427
 O         -3.1161702058        1.2672564601        1.8472037636
 C         -2.5828759210       -0.0107445927        1.8725557334
 O         -2.1518731853       -0.3665327772        2.9892388706
 H          0.1096230251       -0.5366231364        0.8386365633
 C          0.2389972816       -1.2758790825        0.0565719668
 C         -0.7638969082       -2.2169176897       -0.1473766262
 C         -0.5836563337       -3.1721605984       -1.1375110586
 C          0.5623079811       -3.1648382435       -1.9150981402
 C          1.5485204469       -2.2161464333       -1.7218683151
 C          1.3855044056       -1.2636998554       -0.7230766369
 N          2.3771960506       -0.2823781002       -0.5206963065
 S          3.9789892289       -0.8233867884       -0.4710738417
 O          4.4352239910       -1.0185483030       -1.8242232807
 O          4.0895106992       -1.9700177820        0.4031679374
 C          4.8005927132        0.5871262688        0.2416501570
 C          5.0616456547        1.6780141326       -0.5658883118
 C          5.6868615866        2.7844372241       -0.0136212481
 C          6.0386248245        2.7816251235        1.3282391654
 C          5.7705171144        1.6791116383        2.1254356530
 C          5.1434765676        0.5696664275        1.5800038217
 H          4.9219962830       -0.3121318114        2.1598831254
 H          6.0470730704        1.6785944807        3.1675330312
 H          6.5275194920        3.6430550013        1.7551343684
 H          5.8990453203        3.6430592605       -0.6299937115
 H          4.7795843386        1.6315300460       -1.6047066983
 H          2.1755380636        0.2889313124        0.2891546815
 H          2.4446101802       -2.2048934160       -2.3208606611
 H          0.6883559285       -3.9096243429       -2.6865664411
 H         -1.3408941537       -3.9195374473       -1.3070329977
 C         -1.9834209439       -2.1498228793        0.7413149500
 H         -1.6513933569       -2.3022425852        1.7789023588
 C         -3.0401764345       -3.1826767054        0.4132774047
 C         -2.9175901267       -4.5772231210        0.9470840737
 C         -3.9557243764       -3.6504681685        1.5028603752
 H         -4.9926067197       -3.8315248977        1.2627838099
 H         -3.8019470013       -3.2403568519        2.4906671563
 H         -3.2442371950       -5.3981869495        0.3268673363
 H         -2.0588766201       -4.8034212722        1.5611712026
 H         -3.4670054882       -3.0455213320       -0.5731950209
 O         -3.0389065164       -0.8671961958       -1.6180956679
