  62
        -98.93775250
 C         -2.0684981698       -0.8248346905        0.5467810698
 C         -2.1356155602       -0.0891388502       -0.6585027900
 C         -2.2324515705        1.3756190698       -0.5314997896
 C         -2.2274230704        1.9350886895        0.6924941505
 C         -2.2343974006        3.3862752993        1.1274831009
 C         -2.5704708810        4.4984654795        0.1376747012
 C         -4.0204208011        4.5077291793       -0.3452090486
 H         -4.6623145010        4.7947189390        0.4913511516
 H         -4.1177802614        5.2729611395       -1.1182042084
 C         -4.5399690209        3.1801961693       -0.8908412989
 H         -4.5337301206        2.4301148892       -0.0973991490
 H         -5.5815086910        3.3261638492       -1.1894328587
 C         -3.7834055409        2.6298481198       -2.0980375391
 H         -4.3504344008        1.7772957298       -2.4808680492
 H         -3.7447161812        3.3864723200       -2.8839417589
 C         -2.3513541208        2.1419635800       -1.8174052594
 H         -2.0677668408        1.4450953003       -2.6117451996
 H         -1.6383267610        2.9630429702       -1.8377771793
 H         -1.8856172311        4.4676887499       -0.7045412589
 H         -2.3892469011        5.4424296294        0.6589778314
 H         -2.9231231305        3.4406507790        1.9769795610
 H         -1.2317170406        3.5707817195        1.5303012308
 O         -2.1578188001        1.1808429892        1.8304785303
 C         -2.0618386098       -0.1977207808        1.7889941300
 O         -1.9859587495       -0.7435193710        2.9111220098
 H          0.3992619102       -0.9493875299        0.5253890594
 C          0.4822551503       -1.8329773298       -0.0908312408
 C         -0.6116750895       -2.6780940700       -0.2253094709
 C         -0.4738066394       -3.8200044498       -1.0040673011
 C          0.7271432806       -4.0929614193       -1.6369617814
 C          1.8054779804       -3.2364961291       -1.5180683413
 C          1.6751701303       -2.0863120594       -0.7453241110
 N          2.7306591801       -1.1635733092       -0.6596409410
 S          2.7407250400        0.0529948506        0.4986405993
 O          2.7039193203       -0.5101698498        1.8319651292
 O          1.7203621697        1.0202269404        0.1786561597
 C          4.3486629098        0.7541808810        0.1794306193
 C          5.4123401800        0.4337376710        1.0012109690
 C          6.6596694798        0.9716343513        0.7242151590
 C          6.8215656395        1.8140613216       -0.3651921308
 C          5.7441982193        2.1274397116       -1.1809040406
 C          4.4945959194        1.5941453913       -0.9086278805
 H          3.6258084393        1.8152683512       -1.5068246204
 H          5.8727505190        2.7849894518       -2.0254253804
 H          7.7926911594        2.2318231319       -0.5785256009
 H          7.4978690800        0.7326182814        1.3585810988
 H          5.2357029902       -0.2186223992        1.8412281789
 H          3.6438990601       -1.5686620189       -0.8073032012
 H          2.7354939604       -3.4448816888       -2.0236762815
 H          0.8225123807       -4.9856365292       -2.2363257616
 H         -1.3069605993       -4.4945492299       -1.1163320212
 C         -1.8870253495       -2.3297761204        0.5075704594
 H         -1.7729186593       -2.6488352107        1.5553973093
 C         -3.1126663395       -3.0018909105       -0.0780334406
 C         -3.5485292291       -4.3494260608        0.4113985992
 C         -4.3394653893       -3.1293330910        0.7726857196
 H         -5.3046434394       -2.9811133411        0.3123939098
 H         -4.2770044692       -2.7580921713        1.7857904597
 H         -3.9759896291       -5.0419839007       -0.2979598409
 H         -2.9593583589       -4.8153593208        1.1870215190
 H         -3.2519063697       -2.7645494403       -1.1263133505
 O         -2.1038362502       -0.6279637699       -1.7964643501
