  62
        -98.94274695
 C         -1.7949053009       -1.5271382999        0.2302441144
 C         -1.4577120338       -0.1674264074        0.0070397103
 C         -2.4829630633        0.8121901244        0.3996647841
 C         -3.6371476650        0.4018865519        0.9525055529
 C         -4.7663428675        1.2849000057        1.4099488108
 C         -5.7254606193        1.7051340883        0.2876097133
 C         -5.1695759500        2.7390302033       -0.6927509992
 H         -6.0119920560        3.1038094259       -1.2839468727
 H         -4.7714616448        3.5879471854       -0.1361939533
 C         -4.0962689334        2.1961974597       -1.6467316337
 H         -4.3095161667        2.5335147108       -2.6636810750
 H         -4.1382909984        1.1045137084       -1.6576970075
 C         -2.6705284183        2.6345356378       -1.3115188510
 H         -2.5854028200        3.7171745351       -1.4277170681
 H         -1.9906418611        2.1639230300       -2.0262968940
 C         -2.2100774992        2.2554333567        0.1018702433
 H         -1.1292706930        2.4002858331        0.1618970556
 H         -2.6960345011        2.8936032722        0.8392671108
 H         -6.6149813722        2.1272316927        0.7611317179
 H         -6.0349208193        0.8122631217       -0.2608765138
 H         -4.3632362578        2.1732846412        1.8969653399
 H         -5.3308127480        0.7102951739        2.1475695891
 O         -3.9067706878       -0.9107240720        1.1852695874
 C         -3.0016716010       -1.8974430285        0.8319989257
 O         -3.3789099152       -3.0542541482        1.1082783020
 O         -0.3755580831        0.2306240025       -0.4930344982
 C         -0.8455596686       -2.6646072738       -0.1119123406
 C          0.5369426750       -2.3283621889        0.3856431795
 C          0.8091918863       -2.4104461000        1.7473055701
 C          2.0496040250       -2.0519606853        2.2419805247
 C          3.0382528171       -1.5909094320        1.3907499362
 C          2.7694993322       -1.4912850024        0.0321103863
 C          1.5316798119       -1.8748603569       -0.4651448289
 H          1.3298543237       -1.7783947358       -1.5203578912
 N          3.7569550736       -1.0036834557       -0.8439919388
 S          4.5497643186        0.4159265953       -0.4493330896
 O          5.1488824531        0.8616868770       -1.6878646276
 O          5.4643146364        0.1608522182        0.6366373016
 C          3.2967562533        1.5714477621        0.0727285195
 C          3.0862040829        1.7913726639        1.4182305859
 C          2.1021697892        2.6873037008        1.8028120623
 C          1.3524460093        3.3450546170        0.8407411443
 C          1.5736397496        3.1094297194       -0.5072792840
 C          2.5516346806        2.2107681601       -0.8971245144
 H          2.7572343197        2.0088447142       -1.9359858653
 H          0.9835675173        3.6172924160       -1.2535214547
 H          0.5913141179        4.0473878353        1.1441677525
 H          1.9227690964        2.8690873846        2.8505483202
 H          3.6985886641        1.2709884784        2.1361564002
 H          3.4477165835       -0.9650848329       -1.8047319673
 H          4.0090934630       -1.3009501482        1.7585283605
 H          2.2483387290       -2.1267693042        3.3005162742
 H          0.0303156484       -2.7508002140        2.4162735271
 H         -1.2155631833       -3.5287452250        0.4625123895
 C         -0.8653209937       -3.0757161813       -1.5771959194
 C         -2.1587089965       -3.1242476459       -2.3330212350
 C         -1.1196282770       -2.1066584508       -2.6909236953
 H         -0.5753383371       -2.2367629838       -3.6153561644
 H         -1.2984854265       -1.0751209861       -2.4318198053
 H         -2.3307780970       -3.9482463345       -3.0089904885
 H         -3.0474366239       -2.7910288250       -1.8167969987
 H         -0.1587128950       -3.8753254393       -1.7795027597
