  62
        -98.94833968
 C         -1.3067536757       -1.5633397967        0.2095799898
 C         -1.6563968478       -0.6117657179        1.1976090249
 C         -2.9158176724        0.1065660909        0.9809773775
 C         -3.6534548128       -0.1570759338       -0.1131419517
 C         -4.9872566981        0.4527116517       -0.4504581333
 C         -4.8973599431        1.8093529316       -1.1614393042
 C         -4.4603570631        2.9767957003       -0.2761119725
 H         -4.6497348364        3.8942784707       -0.8368620597
 H         -5.0826771911        3.0072318067        0.6190002068
 C         -2.9795632877        2.9436960268        0.1254947016
 H         -2.4274372628        2.2707210970       -0.5351768735
 H         -2.5367863979        3.9332980003       -0.0102668757
 C         -2.7153194148        2.5318309454        1.5734347133
 H         -1.6309112370        2.4955991071        1.7091767368
 H         -3.1161332224        3.2901799477        2.2504745231
 C         -3.3001952899        1.1685294399        1.9660391161
 H         -4.3848468105        1.2370133015        2.0509083014
 H         -2.8888380675        0.8868412917        2.9386854320
 H         -4.2094098028        1.7177643809       -2.0053140973
 H         -5.8886328447        2.0345322718       -1.5619256251
 H         -5.4894060167       -0.2517932164       -1.1171418613
 H         -5.5814728531        0.5563384237        0.4579828743
 O         -3.2695550107       -1.0590791596       -1.0549952612
 C         -2.0735677371       -1.7546037959       -0.9391508285
 O         -1.8221682790       -2.5028555517       -1.9030916209
 O         -0.9505848386       -0.3809714779        2.2169175635
 C         -0.0074617231       -2.3318192385        0.3615791238
 C          0.9858884726       -1.8956266366       -0.6881201681
 C          1.8209563245       -2.7690167023       -1.3731761753
 C          2.7319033691       -2.2836389451       -2.2961178703
 C          2.8545244887       -0.9262422944       -2.5322045239
 C          2.0272830813       -0.0439046247       -1.8466464917
 C          1.0974012462       -0.5363743334       -0.9463427605
 H          0.4397376139        0.1564289295       -0.4450267041
 N          2.1183282339        1.3440358137       -2.0328983076
 S          1.9167523320        2.3451275320       -0.7043886039
 O          0.5210120338        2.4634029941       -0.3711320662
 O          2.5785947980        3.5759316750       -1.0851358402
 C          2.8354392842        1.5500819034        0.6026944285
 C          4.2123623131        1.5422516306        0.4814155457
 C          4.9704466843        0.8940642233        1.4415072441
 C          4.3409636189        0.2609945852        2.5029696164
 C          2.9601234748        0.2832117331        2.6138535524
 C          2.1947451074        0.9328433155        1.6569872090
 H          1.1178602303        0.9508816181        1.7259378179
 H          2.4620155049       -0.2059892020        3.4359409675
 H          4.9286132377       -0.2503777699        3.2490068953
 H          6.0452202586        0.8808972808        1.3590584085
 H          4.6638882952        2.0558848817       -0.3518606074
 H          2.8813868594        1.6467368495       -2.6200755326
 H          3.5739125763       -0.5509563544       -3.2436405719
 H          3.3662741747       -2.9735197462       -2.8314809973
 H          1.7536233873       -3.8289013637       -1.1911391942
 H          0.3956865034       -2.0244116394        1.3392704877
 C         -0.2535454945       -3.8250568230        0.3869147751
 C          0.6572918987       -4.7254446304        1.1655741063
 C         -0.7311917982       -4.4560408249        1.6595821126
 H         -1.4659059168       -5.2448111098        1.5996181058
 H         -0.8548015324       -3.8105938256        2.5170654228
 H          0.8760148742       -5.7051648772        0.7684289429
 H          1.4797257671       -4.2683987251        1.6946324829
 H         -0.6722223055       -4.1945349745       -0.5420136914
