  62
        -98.94043931
 C          2.0465759740        0.4523680335        0.0803461501
 C          2.7072652901       -0.7244771778        0.5179946984
 C          4.0594668184       -0.9514389389       -0.0054642568
 C          4.5816583708       -0.0657920014       -0.8731619505
 C          5.9660490909       -0.1401590393       -1.4475990370
 C          6.9715528685        0.6249056772       -0.5757110159
 C          6.8887128409        0.2787866672        0.9109731442
 H          5.9261786766        0.6158841837        1.3023921154
 H          7.6631487508        0.8543552933        1.4226043903
 C          7.0680185730       -1.2127664797        1.2265923080
 H          7.7482233638       -1.3121675738        2.0751753983
 H          7.5325156879       -1.7179164037        0.3789438924
 C          5.7762867371       -1.9406106571        1.6036238203
 H          5.2595353989       -1.3860478701        2.3910247953
 H          6.0439844390       -2.9179108658        2.0141879998
 C          4.7872550670       -2.1824612282        0.4562775616
 H          4.0157456343       -2.8671524832        0.8208369085
 H          5.3028774152       -2.6611254611       -0.3789802994
 H          6.7839313339        1.6951389647       -0.6890244052
 H          7.9774032987        0.4156043113       -0.9443247881
 H          5.9495417660        0.3053374295       -2.4437148136
 H          6.2625462755       -1.1839208095       -1.5322662499
 O          3.9119274206        1.0347742274       -1.2931402364
 C          2.6314234141        1.3288802153       -0.8349590178
 O          2.1581281601        2.3722017310       -1.3184901067
 O          2.1854881212       -1.5448023084        1.3213173593
 C          0.6572414972        0.6918857324        0.6433409456
 C         -0.3924829273        0.0600203008       -0.2340328481
 C         -0.4406260341        0.3174833806       -1.6004846817
 C         -1.4192920210       -0.2594157679       -2.3893907224
 C         -2.3704813489       -1.0976973569       -1.8339190567
 C         -2.3330283124       -1.3579193471       -0.4710196013
 C         -1.3475973221       -0.7800851415        0.3190494971
 H         -1.3135124276       -1.0002969170        1.3774624556
 N         -3.3220671026       -2.1848521438        0.1002818974
 S         -4.9020413209       -1.6437169735       -0.0708006772
 O         -5.6569561668       -2.3245250165        0.9560007057
 O         -5.3325352381       -1.8571821660       -1.4284290721
 C         -4.7917787109        0.1015999337        0.2771061603
 C         -4.7519313292        0.5043598942        1.5974812145
 C         -4.5626660319        1.8465492967        1.8836407967
 C         -4.4025407394        2.7565011749        0.8496395632
 C         -4.4472017360        2.3364245050       -0.4703259928
 C         -4.6435923348        0.9963366774       -0.7635051785
 H         -4.6880373022        0.6316866763       -1.7763524731
 H         -4.3225570820        3.0467709370       -1.2716374487
 H         -4.2382791896        3.7981419917        1.0741319549
 H         -4.5308314941        2.1777811584        2.9092316225
 H         -4.8812768849       -0.2340445385        2.3727574301
 H         -3.1402892245       -2.4143530900        1.0672778934
 H         -3.1447175043       -1.5494695003       -2.4329001958
 H         -1.4427862676       -0.0534294884       -3.4488531148
 H          0.2939351809        0.9794789761       -2.0336729666
 H          0.6514837680        0.1493085200        1.6021331959
 C          0.3629894981        2.1547860884        0.9479652696
 C         -0.6725166885        2.9602096666        0.2273171118
 C         -0.9159743831        2.5258101421        1.6390834304
 H         -0.8841008675        3.2644788284        2.4251197005
 H         -1.6394059535        1.7397832885        1.7972327072
 H         -0.4462193151        3.9966813701        0.0307681114
 H         -1.2402898047        2.4826801042       -0.5554271788
 H          1.2550878498        2.6901179153        1.2555429999
