  62
        -98.94241411
 C          2.0956421134        0.8817455424        0.1645999512
 C          2.4948402105       -0.0713566165        1.1302198156
 C          2.7086479788       -1.4375916245        0.6365624896
 C          2.4717342966       -1.7115517032       -0.6596633493
 C          2.6692639817       -3.0539467497       -1.3009703377
 C          4.0834914792       -3.1947838132       -1.8809332807
 C          5.1914880707       -2.8001398818       -0.9044907452
 H          6.1449877532       -2.9690034718       -1.4092615950
 H          5.1199737582       -1.7293881775       -0.7005817974
 C          5.1709048116       -3.5710506973        0.4227611886
 H          4.5719278374       -4.4760464652        0.3159585048
 H          6.1896027494       -3.8822392766        0.6628134358
 C          4.6592047064       -2.7632067728        1.6167279376
 H          5.1921597862       -1.8106881649        1.6695558815
 H          4.8912768609       -3.3198466813        2.5284716938
 C          3.1528358155       -2.4736020468        1.6312733005
 H          2.5968835331       -3.4032085078        1.4914016844
 H          2.9014973408       -2.0683589070        2.6160257376
 H          4.2244263310       -4.2300018838       -2.1967765106
 H          4.1597514483       -2.5561748230       -2.7639397108
 H          2.4880431985       -3.8321989940       -0.5619281646
 H          1.9391841957       -3.1560177264       -2.1060106186
 O          2.0602075720       -0.7761067003       -1.5531366061
 C          1.8532273827        0.5384100040       -1.1662010438
 O          1.4679333721        1.2903647972       -2.0819048702
 H         -0.2514622997        0.7802336115        1.2671211853
 C         -0.5839168962        1.6717126251        0.7474959897
 C          0.3563397095        2.6104361762        0.3398488086
 C         -0.0928777113        3.7446263115       -0.3227000175
 C         -1.4394486792        3.9092033133       -0.6023745146
 C         -2.3648414223        2.9515660436       -0.2295658232
 C         -1.9273384468        1.8294983517        0.4583389193
 N         -2.8679685773        0.8187864910        0.8085439292
 S         -3.0726545572       -0.2865768017       -0.4613741985
 O         -1.9963817861       -1.2576446340       -0.4469542968
 O         -3.2648582597        0.4538548658       -1.6812092816
 C         -4.6006927982       -1.0724740518        0.0154138150
 C         -5.7828911739       -0.3929900434       -0.2068569757
 C         -6.9753088290       -0.9754491918        0.1910818676
 C         -6.9656586401       -2.2200870319        0.8034816995
 C         -5.7711065927       -2.8896830806        1.0200950092
 C         -4.5746457188       -2.3113709301        0.6251919175
 H         -3.6227696656       -2.7981048777        0.7663174918
 H         -5.7656074345       -3.8578966274        1.4944965759
 H         -7.8950036253       -2.6721812261        1.1120154686
 H         -7.9062719954       -0.4585574961        0.0229165959
 H         -5.7404506170        0.5671288034       -0.6935100908
 H         -2.5378406438        0.2823427166        1.6022695097
 H         -3.4092642532        3.0495721310       -0.4747753371
 H         -1.7686027915        4.7895785021       -1.1331221228
 H          0.6151939466        4.4920152702       -0.6416509822
 C          1.8102855315        2.3068819445        0.6072756864
 H          1.9748403977        2.3162275462        1.6951565104
 C          2.7676724330        3.2818086955       -0.0427820461
 C          3.1055492436        4.5737569890        0.6380529014
 C          4.1244305184        3.4779554768        0.5621720076
 H          4.9696147108        3.6009304624       -0.0981794207
 H          4.3502820929        2.9240659858        1.4617114407
 H          3.2543616114        5.4529160321        0.0297075137
 H          2.6436824933        4.7700956552        1.5936610372
 H          2.6975279246        3.2722448116       -1.1247466365
 O          2.6502043388        0.2057146023        2.3515053775
