  62
        -98.93524953
 C          2.4458622895        1.0034777799        0.4499005406
 C          2.6251354194       -0.1712450499       -0.3178842196
 C          3.8473972793       -0.9385788402       -0.0360963396
 C          4.6914799293       -0.5203914605        0.9241777505
 C          5.9518493491       -1.2086594108        1.3777141605
 C          7.0920354892       -1.2913569008        0.3444583506
 C          7.1168851391       -2.5928654206       -0.4664295196
 H          6.6163436189       -3.3736491907        0.1074832602
 H          8.1545494790       -2.9101322608       -0.5884309696
 C          6.5055419592       -2.5178210303       -1.8687994897
 H          6.3615341591       -3.5399329902       -2.2256061899
 H          7.2160009494       -2.0322331603       -2.5417909095
 C          5.1806069893       -1.7631193501       -1.9811184396
 H          4.7626982694       -1.9541774698       -2.9715690297
 H          5.3652416095       -0.6875194501       -1.9269483194
 C          4.1380292392       -2.1269003801       -0.9058716098
 H          4.4810117790       -2.9683457802       -0.3058494899
 H          3.1939447192       -2.4029472798       -1.3798246900
 H          8.0279911991       -1.2192423710        0.9007238407
 H          7.0443948294       -0.4285922807       -0.3194593092
 H          6.2969921791       -0.6402401810        2.2437645707
 H          5.6983454689       -2.2150107908        1.7185505903
 O          4.4661876594        0.6052565294        1.6570158407
 C          3.3547886795        1.3985207796        1.4309112507
 O          3.2833080396        2.4075776595        2.1619792709
 H         -1.0103043402        1.6188540608       -1.3763392397
 C         -1.0873605604        1.0774694807       -0.4461895098
 C         -0.0363313904        1.0981541303        0.4562455903
 C         -0.1747325407        0.3959532901        1.6508986402
 C         -1.3257083108       -0.3171495497        1.9236625000
 C         -2.3683831907       -0.3445442694        1.0133846199
 C         -2.2462313405        0.3598012308       -0.1751963000
 N         -3.3045892604        0.3381695311       -1.1005578601
 S         -4.8356664104        0.7579983413       -0.5528393502
 O         -5.5340759402        1.2494664916       -1.7206782302
 O         -4.7618659404        1.6553304211        0.5768364400
 C         -5.5610694307       -0.7902057087       -0.0560433005
 C         -5.6594518108       -1.7969896285       -0.9963669407
 C         -6.2348103810       -3.0024829185       -0.6279150610
 C         -6.7021478611       -3.1789219886        0.6660604589
 C         -6.5990031411       -2.1571972188        1.5975409791
 C         -6.0234408208       -0.9491343088        1.2355614094
 H         -5.9186505008       -0.1280610690        1.9269056595
 H         -6.9636855312       -2.2959865589        2.6026742990
 H         -7.1500408313       -4.1181818986        0.9500114087
 H         -6.3172176110       -3.7994409883       -1.3493366212
 H         -5.2895067106       -1.6183338584       -1.9921764007
 H         -3.0949770702        0.8090582713       -1.9690308500
 H         -3.2681204608       -0.9016338693        1.2178280297
 H         -1.4134292610       -0.8584828499        2.8535610299
 H          0.6384945293        0.4191801199        2.3641771103
 C          1.2309583097        1.8828346402        0.2173920206
 H          1.2809233998        2.6762278200        0.9778299608
 C          1.3087504200        2.5204743604       -1.1542721293
 C          0.6412351602        3.8368552606       -1.4139529091
 C          2.1354005902        3.7572386703       -1.3297735190
 H          2.7103734303        3.8696778304       -2.2366787989
 H          2.6223577101        4.1563531501       -0.4517796388
 H          0.1102958302        4.2988322205       -0.5950165991
 H          0.1926427703        4.0083303308       -2.3812781191
 H          1.3298769299        1.7884181206       -1.9536752994
 O          1.8080667695       -0.5639059797       -1.1908092598
