  62
        -98.94496434
 C          2.0730552099        1.3383468323        0.0199352505
 C          2.6588913649        0.6760499632        1.1248374572
 C          3.8134949092       -0.1765242638        0.8222010875
 C          4.2495641413       -0.2833594663       -0.4464106366
 C          5.4252604811       -1.0993636261       -0.9112749213
 C          5.0973269564       -2.5775346703       -1.1633599027
 C          4.8676327842       -3.4168002875        0.0942479156
 H          4.8620005879       -4.4636942235       -0.2156814761
 H          5.7074137890       -3.2839814699        0.7770166445
 C          3.5532314160       -3.1128937842        0.8268987502
 H          3.0543819660       -4.0502506350        1.0844544635
 H          2.8823093034       -2.5683092664        0.1576597353
 C          3.7196339227       -2.3162151104        2.1212619488
 H          2.7270218252       -2.1299347550        2.5397170179
 H          4.2827199102       -2.9089164289        2.8454636319
 C          4.4215257433       -0.9631172225        1.9442633447
 H          4.2917243075       -0.3870744220        2.8637211259
 H          5.4870580895       -1.1122152185        1.7720927664
 H          5.9371392001       -3.0087907006       -1.7129550739
 H          4.2156367474       -2.6352942259       -1.8062033857
 H          5.7582413347       -0.6561704518       -1.8521815507
 H          6.2351384616       -1.0235941287       -0.1852638575
 O          3.6601271317        0.3715008589       -1.4813371658
 C          2.5451252972        1.1749353262       -1.2827188942
 O          2.0845102401        1.6774315433       -2.3243491838
 H          0.0234459594       -0.2959672803        0.3747026191
 C         -0.6186360907        0.2883528408       -0.2729864555
 C         -0.3379376877        1.6366716064       -0.4629746128
 C         -1.1799904044        2.3777666461       -1.2806508802
 C         -2.2508141681        1.7721125454       -1.9167508308
 C         -2.5115195476        0.4257155099       -1.7452232244
 C         -1.6881376042       -0.3206127664       -0.9103996947
 N         -1.9501171188       -1.6859371424       -0.7137081042
 S         -3.5356363226       -2.1744031920       -0.5057921909
 O         -3.4552901552       -3.3940626799        0.2670696679
 O         -4.1826391685       -2.2858271779       -1.7894012808
 C         -4.3092832300       -0.8804401320        0.4486227089
 C         -5.4007539924       -0.2071727576       -0.0607589402
 C         -5.9717619954        0.8087424645        0.6891460275
 C         -5.4413077214        1.1343329524        1.9275514410
 C         -4.3459678039        0.4462807520        2.4272548989
 C         -3.7727007853       -0.5717263655        1.6830282558
 H         -2.9231582370       -1.1275666078        2.0469985892
 H         -3.9339041601        0.7001929945        3.3907775898
 H         -5.8829496798        1.9282845238        2.5087586352
 H         -6.8246819838        1.3438310127        0.3040319188
 H         -5.7786885740       -0.4909179625       -1.0294726190
 H         -1.3323635193       -2.1361992034       -0.0554750795
 H         -3.3273627779       -0.0628106935       -2.2526158376
 H         -2.8891125407        2.3572726797       -2.5607643636
 H         -0.9919684545        3.4276863267       -1.4313172859
 C          0.8573476883        2.2172422945        0.2529818868
 H          0.6642805211        2.1626062953        1.3348923082
 C          1.1533827364        3.6549376334       -0.1155899060
 C          0.4202599882        4.7725343047        0.5624841117
 C          1.8639142826        4.5240249229        0.8770266916
 H          2.6016928845        5.2238041477        0.5141442941
 H          2.1133189852        4.0851816863        1.8321993965
 H         -0.3128822995        4.5086325530        1.3093595657
 H          0.1669836206        5.6483884271       -0.0154382453
 H          1.4172833238        3.7715426365       -1.1605122251
 O          2.2324068438        0.7868397595        2.3063360853
