  62
        -98.94489556
 C         -1.9239199913       -0.9730547199       -0.2860516627
 C         -3.0438583638       -1.2094439052        0.5515853463
 C         -4.3232272048       -0.6650068824        0.0862179896
 C         -4.3770535545        0.0098804412       -1.0764171327
 C         -5.6101041698        0.6094164092       -1.6960711860
 C         -5.9682855778        2.0002953347       -1.1547791451
 C         -6.5364288068        2.0194511851        0.2648570751
 H         -6.9449425119        3.0180021789        0.4326349849
 H         -7.3648463754        1.3136067413        0.3329276719
 C         -5.5073432855        1.7166499473        1.3630270613
 H         -4.4985084325        1.8375628639        0.9610425353
 H         -5.6161446583        2.4410142570        2.1734184849
 C         -5.6308660071        0.3237893436        1.9808834690
 H         -6.5861368312        0.2383971616        2.5035657523
 H         -4.8320622237        0.2042172130        2.7170926156
 C         -5.5216654438       -0.8268189112        0.9718301845
 H         -5.4010063890       -1.7597909824        1.5276957128
 H         -6.4306544627       -0.8906192595        0.3741798594
 H         -5.0785985592        2.6328823300       -1.1997740035
 H         -6.7146533832        2.4290457605       -1.8275818013
 H         -5.4086033840        0.6981882209       -2.7658246453
 H         -6.4554507813       -0.0650262066       -1.5565833444
 O         -3.2818234436        0.2120063189       -1.8544464780
 C         -2.0290462781       -0.2506597047       -1.4746438017
 O         -1.1223424849        0.0358835090       -2.2801800788
 O         -2.9761900858       -1.8504541466        1.6333462762
 C         -0.5726627641       -1.4955213724        0.1736117733
 C          0.2780493750       -0.3218944135        0.5897593373
 C          0.1413880268        0.2039280725        1.8712033636
 C          0.8871602189        1.2974478210        2.2715151548
 C          1.7803805320        1.8952334202        1.3990182359
 C          1.9145366663        1.3839535914        0.1156817754
 C          1.1779541272        0.2758169087       -0.2795530167
 H          1.2833563835       -0.1018202289       -1.2843139513
 N          2.8278293611        1.9884191287       -0.7774221472
 S          4.4424096991        1.8458017739       -0.3534119317
 O          4.6930319524        2.6527697789        0.8134768465
 O          5.1945745465        2.1831429275       -1.5403917714
 C          4.6409115303        0.1181690388        0.0410619681
 C          4.4085855290       -0.3099189098        1.3326563965
 C          4.4729116424       -1.6662677527        1.6085836450
 C          4.7651417674       -2.5654406982        0.5948432327
 C          4.9994565284       -2.1185706920       -0.6965610627
 C          4.9301515529       -0.7644252066       -0.9803685313
 H          5.1077853808       -0.3748214160       -1.9701092842
 H          5.2313562339       -2.8201407815       -1.4819583073
 H          4.8108234723       -3.6210049478        0.8119013798
 H          4.2911622290       -2.0162310481        2.6120348098
 H          4.1885940598        0.4204991305        2.0936873836
 H          2.7003121512        1.6789056052       -1.7309729859
 H          2.3788364846        2.7425360363        1.6928053464
 H          0.7716428537        1.6906441674        3.2702318408
 H         -0.5659002514       -0.2534821625        2.5488253007
 H         -0.7867557680       -2.0930759612        1.0697993802
 C          0.0930082907       -2.3825155890       -0.8581130460
 C          1.3057463042       -3.1703006047       -0.4636590448
 C          0.0055633813       -3.8711045929       -0.7157909974
 H         -0.0955153652       -4.4674713516       -1.6101576084
 H         -0.5385335750       -4.2613228117        0.1316153154
 H          2.1026632539       -3.2848216170       -1.1820755692
 H          1.6461448997       -3.0778021880        0.5564102092
 H          0.0549206955       -1.9794457801       -1.8626011071
