  62
        -98.94184256
 C         -0.7045471552       -1.4438382682        0.4055280895
 C         -1.2242100000       -0.8482426119       -0.7708248237
 C         -2.3388093086        0.0949373084       -0.5648719367
 C         -2.7440810764        0.3899022667        0.6822241865
 C         -3.9261431060        1.2500689876        1.0231862677
 C         -5.2020329740        0.4050596317        1.1486630625
 C         -5.4375206596       -0.5376888259       -0.0316467024
 H         -4.6539120383       -1.2987131673       -0.0428586221
 H         -6.3833221204       -1.0536746512        0.1473221414
 C         -5.4857155348        0.1566380661       -1.4001067699
 H         -6.3312030145       -0.2410413056       -1.9654684821
 H         -5.6592540744        1.2252264507       -1.2687100154
 C         -4.2382286420       -0.0514241457       -2.2615428293
 H         -4.0107487771       -1.1186140239       -2.3258539192
 H         -4.4614108294        0.2954752002       -3.2741866612
 C         -2.9744353095        0.6818964014       -1.7935347895
 H         -3.1985594988        1.7404889481       -1.6468177677
 H         -2.2262149307        0.5973861694       -2.5879273776
 H         -5.1319432835       -0.1964939620        2.0576945335
 H         -6.0539705680        1.0795327306        1.2518850198
 H         -3.7333259918        1.7411094637        1.9777850389
 H         -4.0606028243        2.0055209715        0.2517723939
 O         -2.1482777224       -0.1199036031        1.7893684750
 C         -1.1359769900       -1.0558065240        1.6772953721
 O         -0.7047826131       -1.4760503792        2.7692075783
 O         -0.8172620640       -1.0894290669       -1.9353209135
 C          0.3680256381       -2.5214607521        0.4054183261
 C          1.7376360942       -1.9260318853        0.6027225849
 C          2.6250109085       -2.4868871528        1.5142166892
 C          3.8843309086       -1.9448456231        1.6957998423
 C          4.2741505383       -0.8259104069        0.9833693584
 C          3.3910262456       -0.2529774031        0.0736888365
 C          2.1330317936       -0.8074066680       -0.1180180093
 H          1.4628495221       -0.3673309445       -0.8414092050
 N          3.7661163571        0.8863765554       -0.6480114174
 S          2.6454143331        1.9789364752       -1.2118333542
 O          2.0164292334        1.4853453556       -2.4096308310
 O          3.4042938440        3.2034284365       -1.3696175760
 C          1.4295048344        2.2207368484        0.0727735346
 C          1.7874681688        2.1513390837        1.4043744786
 C          0.8305881210        2.4185022444        2.3702506008
 C         -0.4531425612        2.7777551728        1.9926069399
 C         -0.7926658133        2.8588492376        0.6518396475
 C          0.1525754603        2.5671026219       -0.3177598657
 H         -0.0786383660        2.5929830529       -1.3708947712
 H         -1.7877201609        3.1489964723        0.3575992314
 H         -1.1926716407        2.9929593588        2.7475562625
 H          1.0900697259        2.3473758952        3.4142357224
 H          2.7940621200        1.8854342267        1.6827460541
 H          4.6260966222        1.3274869014       -0.3583538259
 H          5.2525349812       -0.3938628557        1.1269830927
 H          4.5650600982       -2.3900622107        2.4049288939
 H          2.3148694415       -3.3449041365        2.0918015986
 H          0.1560652640       -3.1390168653        1.2940929108
 C          0.3011096477       -3.4447110589       -0.8031283985
 C          1.2722648107       -3.3907229227       -1.9395338580
 C          1.3173985971       -4.5351065151       -0.9746798231
 H          0.9816622411       -5.5057971745       -1.3069387352
 H          2.1401697454       -4.5653028005       -0.2765978629
 H          0.8861424252       -3.5564188058       -2.9337695273
 H          2.0598731115       -2.6539720651       -1.9043959863
 H         -0.7231061785       -3.6921119040       -1.0632222291
