  62
        -98.94079618
 C         -2.2818746607       -0.9623819695       -0.2670056763
 C         -3.6074232257       -1.1850876757        0.1790663333
 C         -4.6222738446       -0.2647870937       -0.3446995356
 C         -4.2637158669        0.6993702788       -1.2119481586
 C         -5.1852245335        1.7042322664       -1.8485318522
 C         -5.4554719367        2.9383901212       -0.9768561004
 C         -6.3658686110        2.6963552286        0.2277745435
 H         -6.6429855134        3.6763623321        0.6212092639
 H         -7.2822247002        2.2073078368       -0.1039389864
 C         -5.7213464592        1.8768802311        1.3545508712
 H         -4.6363867798        1.8698711815        1.2248585039
 H         -5.9249237594        2.3556565239        2.3150284151
 C         -6.2181709377        0.4344172560        1.4535110942
 H         -7.2792449477        0.4294187959        1.7120241987
 H         -5.6725140742       -0.0610675668        2.2605299439
 C         -6.0229972822       -0.3906046433        0.1744196110
 H         -6.1953754982       -1.4424526565        0.4145393453
 H         -6.7400481998       -0.0823132186       -0.5858009945
 H         -4.4981546614        3.3404652702       -0.6366830925
 H         -5.9242528087        3.6914178655       -1.6145213703
 H         -4.6974787957        2.0326073346       -2.7688605133
 H         -6.1296511573        1.2247467767       -2.1068779310
 O         -2.9817250045        0.8661041619       -1.6347875847
 C         -1.9561048318        0.0633932165       -1.1539863934
 O         -0.8286240803        0.3590752712       -1.5955127643
 O         -3.9252050510       -2.1055706628        0.9785618006
 C         -1.1724301651       -1.8497771484        0.2705198587
 C         -0.2127247265       -1.0010765694        1.0673042089
 C         -0.6998196637       -0.3332928933        2.1892325053
 C          0.1229622673        0.4855914028        2.9361783073
 C          1.4473568977        0.6614395255        2.5743933318
 C          1.9466345170       -0.0067922893        1.4632064078
 C          1.1195408036       -0.8414040455        0.7222355007
 H          1.5262345075       -1.3386290075       -0.1412311361
 N          3.3047926923        0.1247319185        1.1131254614
 S          3.7402658178        0.3329576231       -0.5065184602
 O          3.1183389309        1.5219859996       -1.0460457552
 O          3.5238726027       -0.8990615515       -1.2198295859
 C          5.4926150919        0.6048954874       -0.3055825203
 C          6.3065949201       -0.4858321259       -0.0654620764
 C          7.6647136342       -0.2808109295        0.1179449543
 C          8.1839978954        1.0041141189        0.0589776684
 C          7.3553461088        2.0887266799       -0.1850525739
 C          5.9956608662        1.8903270192       -0.3679858181
 H          5.3139503189        2.7013810423       -0.5685040191
 H          7.7617013427        3.0861482387       -0.2339930959
 H          9.2415865512        1.1608922144        0.2011048587
 H          8.3126413530       -1.1218599049        0.3050589871
 H          5.8594105008       -1.4656044354       -0.0370177928
 H          3.7635938092        0.8359830579        1.6687789223
 H          2.0899775144        1.3103862305        3.1504425177
 H         -0.2689927627        0.9988659534        3.8014881484
 H         -1.7388294463       -0.4631540572        2.4607051296
 H         -1.6682111222       -2.5474519600        0.9616056134
 C         -0.5193288993       -2.6457971316       -0.8375533568
 C          0.1983626041       -3.9209489898       -0.5143333983
 C         -1.1128915723       -3.9617286919       -1.2384200210
 H         -1.1184164916       -4.2260538888       -2.2852249903
 H         -1.9858685387       -4.2975335773       -0.6979044449
 H          1.0987070512       -4.1546239253       -1.0621599338
 H          0.2166750277       -4.2332929531        0.5188519651
 H         -0.1149144233       -2.0201786041       -1.6260567344
