  62
        -98.93897595
 C         -2.0417529089       -1.0423147675       -0.2521519928
 C         -2.3898693817       -0.2751095660        0.8892779243
 C         -2.5785483707        1.1622283548        0.6824697402
 C         -2.3619930421        1.6884237689       -0.5359555294
 C         -2.4466328903        3.1464240374       -0.8996894747
 C         -3.8673074489        3.6367200239       -1.2117024790
 C         -4.7906040057        3.7686339405        0.0001308557
 H         -4.2962972607        4.3656245841        0.7669602476
 H         -5.6723493930        4.3224268577       -0.3280303425
 C         -5.2424844204        2.4296143317        0.5992620208
 H         -5.0614024479        1.6292455550       -0.1217879736
 H         -6.3184567678        2.4577842848        0.7847375323
 C         -4.5638250976        2.0653212568        1.9196729588
 H         -4.8398233759        2.7920760050        2.6867804734
 H         -4.9305113305        1.0853609677        2.2350572037
 C         -3.0328696025        1.9942253546        1.8435227159
 H         -2.6101125801        2.9968851959        1.7783582812
 H         -2.6622743115        1.5177727106        2.7544778776
 H         -4.3164531411        2.9590211860       -1.9412904995
 H         -3.7759817534        4.6186370012       -1.6817404130
 H         -2.0188508100        3.7448112257       -0.0944108626
 H         -1.8295900930        3.2769770772       -1.7917288209
 O         -2.0126006630        0.9279316044       -1.6051025683
 C         -1.8394115704       -0.4498517126       -1.4991706097
 O         -1.5343828768       -0.9912286558       -2.5780175976
 H          0.5052476956       -1.2431554254       -0.7286378769
 C          0.6587709015       -1.8933312015        0.1207423537
 C         -0.3946925187       -2.6460798473        0.6191298319
 C         -0.1632888677       -3.4789431041        1.7072464344
 C          1.0911204322       -3.5433449493        2.2882349825
 C          2.1275253640       -2.7595262671        1.8147781983
 C          1.9058989737       -1.9252138326        0.7245370675
 N          2.9260186218       -1.1059014561        0.2138600049
 S          2.4762856286        0.4261024205       -0.3495025759
 O          1.4556804173        0.9909173222        0.5042527918
 O          2.1687206142        0.3291345086       -1.7542785496
 C          4.0137308047        1.3063940611       -0.1381997699
 C          4.2001412689        2.0800935500        0.9916748740
 C          5.4112613647        2.7316153191        1.1657834574
 C          6.4109506030        2.5959031910        0.2142636181
 C          6.2089454345        1.8161995281       -0.9150679532
 C          4.9999155731        1.1634117776       -1.0961859649
 H          4.7917466002        0.5550735980       -1.9609339162
 H          6.9871130513        1.7152748427       -1.6541820790
 H          7.3524663050        3.1033896473        0.3524473877
 H          5.5693845883        3.3408734085        2.0409921392
 H          3.3903882093        2.1606845396        1.6992354722
 H          3.7352429976       -1.0599057654        0.8184832078
 H          3.0982013455       -2.7864267090        2.2859706633
 H          1.2575599401       -4.1924298418        3.1343881418
 H         -0.9802081498       -4.0569943541        2.1133617493
 C         -1.7676993495       -2.5142466738        0.0056847059
 H         -2.4963725693       -2.8180466202        0.7757053966
 C         -1.9693440589       -3.4214156663       -1.1963419047
 C         -0.8331613082       -3.9728846135       -1.9986443015
 C         -1.6249047799       -4.8790533072       -1.1071105522
 H         -2.2940511044       -5.5939521332       -1.5610162296
 H         -1.1497145596       -5.2259511684       -0.2023218061
 H         -0.9635266349       -4.0394024104       -3.0677468398
 H          0.1704432695       -3.7070489571       -1.7034809991
 H         -2.8653562648       -3.1640076609       -1.7509730029
 O         -2.5374628399       -0.7809813941        2.0355164763
