  62
        -98.93629162
 C         -2.5283593839       -0.3225895386        0.6339279683
 C         -2.1649890534        0.2449720046       -0.6104396949
 C         -2.0000759710        1.7112434476       -0.6457947808
 C         -2.1428897165        2.4238455796        0.4862493990
 C         -2.0727830235        3.9138619460        0.7511933281
 C         -1.5165035118        4.8693039101       -0.3001976900
 C         -0.0152602926        4.7323701678       -0.5531297848
 H          0.2497985742        5.3716707996       -1.3980554194
 H          0.5195822794        5.1011857818        0.3257066999
 C          0.4829114378        3.3158655087       -0.8302184444
 H          1.5665908145        3.3586830129       -0.9754525845
 H          0.3158015092        2.6771778936        0.0405399657
 C         -0.1124851348        2.6338173394       -2.0600209663
 H          0.0525054490        3.2553504403       -2.9432312905
 H          0.4338837012        1.6965762631       -2.1981782263
 C         -1.6094914299        2.2938474494       -1.9734864369
 H         -2.2259517766        3.1583412690       -2.2112205365
 H         -1.8200599365        1.5227216873       -2.7208157364
 H         -1.6966718611        5.8814158335        0.0723182112
 H         -2.0715137020        4.7712435464       -1.2284554571
 H         -3.0978106330        4.2190463698        0.9900318768
 H         -1.4956316287        4.0229218069        1.6750350596
 O         -2.4548702354        1.8261536470        1.6745608482
 C         -2.6275802619        0.4593895572        1.7842957363
 O         -2.8650808648        0.0659382696        2.9451274837
 H         -0.1286138510       -1.2296282582        1.1178771708
 C         -0.2469741794       -2.0552080220        0.4310857158
 C         -1.5236334753       -2.5234363804        0.1437663513
 C         -1.6579073554       -3.5890660157       -0.7352739677
 C         -0.5389213968       -4.1478011716       -1.3292300484
 C          0.7235385103       -3.6429135360       -1.0809877070
 C          0.8685407658       -2.5791345848       -0.1973491603
 N          2.1407000082       -2.0313711190        0.0834559507
 S          2.3005138305       -0.3551528871       -0.0984750935
 O          1.5378685874        0.3194239922        0.9204593933
 O          2.0335442667        0.0168124957       -1.4702110303
 C          4.0414006195       -0.1790959269        0.2460082936
 C          4.9241370841        0.0997377555       -0.7792612406
 C          6.2759295714        0.2054284477       -0.4899443866
 C          6.7188890755        0.0276419363        0.8117283172
 C          5.8201070633       -0.2516965958        1.8309677245
 C          4.4676536892       -0.3563332906        1.5484756551
 H          3.7311491283       -0.5640028440        2.3073407158
 H          6.1676824204       -0.3878105721        2.8423758041
 H          7.7709639601        0.1091058900        1.0345778705
 H          6.9763379225        0.4250624974       -1.2795115860
 H          4.5319519634        0.2337775238       -1.7745841948
 H          2.8603223338       -2.4756455566       -0.4746661655
 H          1.5905788162       -4.0598999583       -1.5716636035
 H         -0.6555303585       -4.9736916482       -2.0147872658
 H         -2.6374578469       -3.9666777187       -0.9785772898
 C         -2.6798945296       -1.8239344741        0.8169099557
 H         -2.5797263073       -1.9843966267        1.9040519938
 C         -4.0418378624       -2.3748219196        0.4213483787
 C         -5.2527555199       -1.4920207339        0.3859782098
 C         -4.6872296314       -2.0392915213       -0.8883034215
 H         -5.2391371707       -2.8135710340       -1.4010226922
 H         -4.1546054758       -1.3708868921       -1.5457342580
 H         -6.1874174958       -1.8910953476        0.7506127638
 H         -5.1121932460       -0.4421633829        0.5999081039
 H         -4.1975006863       -3.3808706720        0.7986132398
 O         -1.9992714801       -0.4280288729       -1.6616840736
