  62
        -98.93984886
 C          2.1950779454        0.7903315487        0.0834157857
 C          2.4927799036       -0.2666782103        0.9758394875
 C          3.1234202551       -1.4492865547        0.3792934879
 C          3.3373642921       -1.4920457877       -0.9486269124
 C          3.9452225415       -2.6387603022       -1.7100014449
 C          5.4800961877       -2.6426808652       -1.7108146361
 C          6.1304726458       -3.0341974364       -0.3833225190
 H          5.7071415577       -3.9774241051       -0.0366800140
 H          7.1895667311       -3.2069700889       -0.5844764079
 C          6.0049960689       -1.9745637690        0.7202994634
 H          6.9724774180       -1.8421001065        1.2097936727
 H          5.7384734798       -1.0135261618        0.2743509786
 C          4.9886777517       -2.3121792007        1.8112217722
 H          4.9561186567       -1.4792695833        2.5183084240
 H          5.3154644718       -3.2017325055        2.3542838887
 C          3.5637569282       -2.5515421823        1.2949274523
 H          3.5041671335       -3.5146980824        0.7886236300
 H          2.8858555638       -2.5627760598        2.1520576816
 H          5.8315878790       -1.6529063226       -2.0111186937
 H          5.8033039926       -3.3551640501       -2.4732250115
 H          3.6006369611       -2.5429645138       -2.7418494124
 H          3.5782187787       -3.5830224359       -1.3068721806
 O          2.9938347167       -0.4724003299       -1.7797661985
 C          2.4325707410        0.6979138463       -1.2884113273
 O          2.1921008599        1.5549457433       -2.1586790664
 O          2.2339550883       -0.2279369019        2.2097043140
 C          1.5623673942        2.0568986283        0.6305138262
 C          0.1981275758        2.2587655871        0.0168261195
 C         -0.2149487398        3.4498893922       -0.5631919877
 C         -1.4828998691        3.5589048922       -1.1090182912
 C         -2.3629651547        2.4934242793       -1.0872391655
 C         -1.9659485696        1.3005935266       -0.4950950563
 C         -0.6978393525        1.1965270990        0.0556914764
 H         -0.3867418571        0.2674741160        0.5186501712
 N         -2.8431788405        0.1947123070       -0.4769445840
 S         -4.4028658189        0.4609364995        0.1199461443
 O         -5.1430073992        1.2249594892       -0.8513151672
 O         -4.3382962947        1.0247017281        1.4512179798
 C         -5.0277312179       -1.2059341540        0.1799335903
 C         -5.4925796153       -1.7789206440       -0.9884568671
 C         -5.9604833281       -3.0827424621       -0.9542437381
 C         -5.9553151508       -3.7876803525        0.2403769847
 C         -5.4863794903       -3.1986568220        1.4048765284
 C         -5.0154298013       -1.8952404368        1.3773181863
 H         -4.6501154833       -1.3950226859        2.2601090342
 H         -5.4859393510       -3.7480407259        2.3325458748
 H         -6.3219569500       -4.8017303281        0.2650266016
 H         -6.3280336945       -3.5438571303       -1.8567222204
 H         -5.4858623732       -1.1899182582       -1.8905806837
 H         -2.4303323015       -0.5890366857        0.0124037849
 H         -3.3517791434        2.5722985762       -1.5081620539
 H         -1.7896003925        4.4890782356       -1.5633750956
 H          0.4554822854        4.2927862359       -0.5949728064
 H          1.4243554937        1.8725628288        1.7067894901
 C          2.4941265172        3.2370208488        0.4558747338
 C          2.4241344130        4.3985870757        1.4002303979
 C          3.5843224201        3.4523736877        1.4610035704
 H          4.5479267205        3.7919377787        1.1119714094
 H          3.6392217683        2.7610069028        2.2893583981
 H          2.5932696338        5.3911684533        1.0109646037
 H          1.6919264651        4.3546515745        2.1923631224
 H          2.7275392187        3.4333978657       -0.5844557674
