  62
        -98.94511943
 C          2.4459398060        1.1871695757       -0.0861027085
 C          3.5439006306        0.8445906875        0.7433957056
 C          4.4530956103       -0.1838751003        0.2233963829
 C          4.1981725380       -0.7401516837       -0.9749427153
 C          5.0054526610       -1.8412731371       -1.5978317549
 C          4.4540171907       -3.2211040892       -1.2123355708
 C          4.2115949155       -3.3932810199        0.2872735900
 H          3.4069082252       -2.7220571453        0.5970950349
 H          3.8538814414       -4.4134631886        0.4428634644
 C          5.4472935590       -3.1444788170        1.1635981863
 H          6.3501323508       -3.1992111641        0.5543498941
 H          5.5114378135       -3.9383612836        1.9106212386
 C          5.4285219498       -1.8173476006        1.9241611733
 H          4.4822265545       -1.7170621301        2.4615781806
 H          6.2277938696       -1.8414585907        2.6695499238
 C          5.6349828327       -0.5581702378        1.0730419861
 H          5.7908242057        0.2820504796        1.7558305786
 H          6.5299130362       -0.6721582270        0.4581565222
 H          5.1554205788       -3.9820711279       -1.5593993320
 H          3.5042641566       -3.3720813500       -1.7312150375
 H          4.9577610717       -1.7314134452       -2.6825561659
 H          6.0416834282       -1.7503780594       -1.2779046475
 O          3.1363296995       -0.3877153723       -1.7427038633
 C          2.2305250518        0.5755078341       -1.3210442645
 O          1.3098091527        0.7909916310       -2.1335736001
 H         -0.7609912164        1.9956924533       -1.1560415772
 C         -0.8736664091        1.5088560463       -0.2004224142
 C          0.1583361125        1.5559638894        0.7233391148
 C         -0.0009726780        0.8884637961        1.9348815669
 C         -1.1658368737        0.1986430755        2.2126127659
 C         -2.1922524827        0.1494560979        1.2848387710
 C         -2.0349043404        0.7952099970        0.0665902372
 N         -3.0643382322        0.7404099976       -0.8890355031
 S         -3.7616862518       -0.7508954058       -1.2177702735
 O         -2.8446261622       -1.8416973254       -0.9795330513
 O         -4.2908988556       -0.6342627593       -2.5593781389
 C         -5.1226705330       -0.8340955075       -0.0702121860
 C         -5.2705001003       -1.9386419124        0.7456074250
 C         -6.3423612539       -1.9853890937        1.6236781049
 C         -7.2433843884       -0.9327501798        1.6693344165
 C         -7.0828021553        0.1681516021        0.8410598428
 C         -6.0141305970        0.2205796732       -0.0393887721
 H         -5.8548031338        1.0558771950       -0.7005076433
 H         -7.7855716073        0.9848021013        0.8792906764
 H         -8.0755511217       -0.9707598492        2.3544104197
 H         -6.4685567752       -2.8409320696        2.2676252127
 H         -4.5412737385       -2.7306236529        0.6797900636
 H         -2.8337184898        1.2180548703       -1.7488557632
 H         -3.0984223336       -0.3969989182        1.4890172250
 H         -1.2771537861       -0.3094710482        3.1584644990
 H          0.8089305980        0.9079099491        2.6508665979
 C          1.4705217011        2.2364982719        0.4231589705
 H          1.8967968094        2.5894855965        1.3718029174
 C          1.3505928564        3.4127554199       -0.5227031304
 C          0.7171209408        4.6807847743       -0.0359654993
 C          2.1933188469        4.6288189176       -0.2873864838
 H          2.5908061535        5.1521415562       -1.1441199748
 H          2.8579222186        4.6184685734        0.5639211545
 H          0.3779088121        4.7040375722        0.9884851948
 H          0.0985812771        5.2438596659       -0.7179435029
 H          1.1823606560        3.1226425771       -1.5527535657
 O          3.7545892170        1.3786550486        1.8645483167
