  62
        -98.93696786
 C          2.0345523490        0.7627289467        0.3167451206
 C          2.1844259987       -0.6053456905       -0.0289378495
 C          3.5009446283       -1.0149137484       -0.5326001227
 C          4.4640557857       -0.0863003920       -0.6730105990
 C          5.8659401288       -0.3650294032       -1.1307251601
 C          6.7911910163       -0.6588136709        0.0583060411
 C          6.2311660552       -1.6926889898        1.0351937197
 H          6.9807311451       -1.8425571196        1.8153258167
 H          5.3423404717       -1.2809075746        1.5188699140
 C          5.8798803317       -3.0438004331        0.3967458158
 H          6.3796639178       -3.1385568782       -0.5679476844
 H          6.2588141945       -3.8425390320        1.0378605160
 C          4.3806571274       -3.2900976978        0.2172617478
 H          4.2375793184       -4.3449156631       -0.0318681297
 H          3.8635243963       -3.1040087293        1.1619693988
 C          3.6945243363       -2.4645181340       -0.8785154814
 H          2.6904263630       -2.8732794823       -1.0236669877
 H          4.2459733266       -2.5664979032       -1.8154447132
 H          7.7518277486       -1.0038118026       -0.3285447141
 H          6.9593847642        0.2723334770        0.6043910482
 H          6.2365022748        0.5150113326       -1.6590969741
 H          5.8569030100       -1.2109483168       -1.8153777420
 O          4.2760297730        1.2210803192       -0.3684124795
 C          3.0644262855        1.6867629621        0.1345391065
 O          3.0595096571        2.9099227612        0.3602583041
 O          1.2527543867       -1.4466822982        0.0860166376
 C          0.6773299023        1.1705372455        0.8593545784
 C         -0.2665767688        1.5342181676       -0.2584736709
 C          0.1269098473        2.3746829299       -1.2940717243
 C         -0.7615860171        2.6996932415       -2.3028361404
 C         -2.0520701411        2.2016106786       -2.2931511466
 C         -2.4554803241        1.3566455526       -1.2640053209
 C         -1.5565910479        1.0238338979       -0.2593444118
 H         -1.8698936618        0.3775792583        0.5457992446
 N         -3.7486932569        0.8229701322       -1.2672703256
 S         -4.6226992022        0.3664217192        0.0786731921
 O         -5.9925297907        0.7303926975       -0.2119718988
 O         -4.0615686107        0.9225761695        1.2866401858
 C         -4.5089611539       -1.4145031030        0.1152694491
 C         -3.3539519673       -2.0585355214       -0.2813663750
 C         -3.3034099139       -3.4430160068       -0.2154318333
 C         -4.3996003954       -4.1582904661        0.2403763137
 C         -5.5544619665       -3.4977956707        0.6308992307
 C         -5.6104859367       -2.1148835132        0.5696092387
 H         -6.4906181329       -1.5623238709        0.8560034228
 H         -6.4085143056       -4.0540547486        0.9824127489
 H         -4.3529825149       -5.2347782420        0.2890599627
 H         -2.4019820560       -3.9515099556       -0.5188305819
 H         -2.5071663851       -1.4930308121       -0.6358020598
 H         -4.3506667233        1.1573216415       -2.0037635731
 H         -2.7443196926        2.4603126045       -3.0798300308
 H         -0.4480602161        3.3543501392       -3.1021427199
 H          1.1289343885        2.7773393621       -1.2933303913
 H          0.2777465140        0.2603621252        1.3359394899
 C          0.7418283387        2.2456978785        1.9344653398
 C          0.2645589319        3.6484604857        1.7272484268
 C         -0.5182809600        2.7160813072        2.5996788966
 H         -0.5081797910        2.8760821406        3.6674689146
 H         -1.4589492787        2.3405830007        2.2222738356
 H          0.8324279155        4.4424489677        2.1875327279
 H         -0.1449100465        3.9116727115        0.7646088421
 H          1.6115831157        2.1276110529        2.5728836044
