  62
        -98.94822814
 C         -0.7865812410       -1.1558146295        0.6019150604
 C         -1.2514590500       -0.6588489893       -0.6394472699
 C         -2.1951121194        0.4628767412       -0.5579721805
 C         -2.4755426997        1.0145373315        0.6357662293
 C         -3.4312510991        2.1501917121        0.8828691886
 C         -4.8959823995        1.7064333230        1.0083967079
 C         -5.5629222990        1.2790136033       -0.2999620925
 H         -6.6347080692        1.2094483440       -0.1034434331
 H         -5.4202480781        2.0566653832       -1.0506821225
 C         -5.0751175095       -0.0682615670       -0.8512579421
 H         -4.5614199703       -0.6209223673       -0.0610887617
 H         -5.9351033897       -0.6700886365       -1.1538007625
 C         -4.1483547588        0.0401688423       -2.0624499016
 H         -3.8318751993       -0.9676034879       -2.3425165813
 H         -4.6961856581        0.4675061825       -2.9051416319
 C         -2.8901696984        0.8838003115       -1.8170926010
 H         -3.1537182978        1.9392068217       -1.7750224512
 H         -2.1989820681        0.7213036310       -2.6467983406
 H         -4.9526164704        0.8883983331        1.7304343679
 H         -5.4576710392        2.5491256234        1.4182755575
 H         -3.3433404482        2.8890480720        0.0867682786
 H         -3.1324754394        2.6110462420        1.8267212287
 O         -1.8960103006        0.5925437313        1.7927231296
 C         -1.0824478813       -0.5289944192        1.8113080902
 O         -0.6861832521       -0.8589970693        2.9489094804
 O         -0.9182118297       -1.1375190797       -1.7531233997
 C          0.0610581082       -2.4149527800        0.6419000210
 C          1.3123731088       -2.2247040109       -0.1775054684
 C          1.6978784988       -3.0722421112       -1.2073052181
 C          2.8566163294       -2.8205798720       -1.9211981274
 C          3.6517742699       -1.7302653424       -1.6224172671
 C          3.2830224598       -0.8860458021       -0.5796279974
 C          2.1218133893       -1.1380702513        0.1321674020
 H          1.8429268592       -0.4867603111        0.9488277718
 N          4.0860519403        0.2084479974       -0.2374832271
 S          3.5237150806        1.4956934979        0.6435560925
 O          4.5212935713        2.5249106072        0.4332925730
 O          3.3080224396        1.1137241281        2.0173642324
 C          1.9916682013        2.0394015187       -0.0920022684
 C          1.8006923120        1.9526919187       -1.4559304485
 C          0.6484354327        2.4911145994       -2.0055960392
 C         -0.2786036374        3.1198977000       -1.1908858797
 C         -0.0763181181        3.1940002600        0.1779309204
 C          1.0663435513        2.6443111894        0.7343615010
 H          1.2570496907        2.6690667694        1.7961004411
 H         -0.7987830482        3.6787104305        0.8145217299
 H         -1.1626054569        3.5569548305       -1.6263278703
 H          0.4810478032        2.4224833394       -3.0682338593
 H          2.5379879821        1.4685485982       -2.0750978280
 H          4.8212591808        0.4495497069       -0.8838137367
 H          4.5527788303       -1.5324223530       -2.1821928166
 H          3.1416656294       -3.4808429022       -2.7259923972
 H          1.0885726585       -3.9242805008       -1.4582246783
 H          0.3617668076       -2.5462161301        1.6918157412
 C         -0.7730880423       -3.6067602796        0.2187317006
 C         -0.4341989934       -4.9785935797        0.7163583510
 C         -1.6502319432       -4.2722932689        1.2343405602
 H         -2.6234403833       -4.6236851884        0.9257487797
 H         -1.6276376135       -3.8804489788        2.2412808802
 H         -0.5754128635       -5.8188849597        0.0536253510
 H          0.4147156462       -5.0744728902        1.3763440214
 H         -1.1637025717       -3.5073800294       -0.7874519696
