  62
        -98.94045883
 C         -1.7852570109       -1.3524717795        0.3381075702
 C         -1.3194345810       -0.2558474994       -0.4224051697
 C         -1.8701409106        1.0709997506       -0.0864080991
 C         -2.7637225602        1.1701392005        0.9137140012
 C         -3.4864455798        2.4059966105        1.3744042618
 C         -4.6314470101        2.8122543810        0.4255604623
 C         -4.3498505406        2.6119999114       -1.0628311678
 H         -4.0364729609        1.5800061313       -1.2315622882
 H         -5.2901103308        2.7565406917       -1.6014447374
 C         -3.3174600007        3.5618352013       -1.6659388579
 H         -3.1952802911        3.2915269616       -2.7176658981
 H         -3.7083542905        4.5814109714       -1.6269032375
 C         -1.9413169804        3.5578658409       -1.0014400885
 H         -1.2799847105        4.1791268909       -1.6130184785
 H         -1.9904622100        4.0297309506       -0.0235991383
 C         -1.2691173407        2.1906054807       -0.9002056891
 H         -1.1352724211        1.7844805609       -1.9090045292
 H         -0.2573581305        2.3332352604       -0.4967041494
 H         -4.8837464698        3.8568856410        0.6133483527
 H         -5.5032937401        2.2043172011        0.6783199725
 H         -3.9097083495        2.1792906904        2.3554903719
 H         -2.7717926796        3.2143173004        1.5044763118
 O         -3.1805676402        0.0880831204        1.6306848211
 C         -2.6778536705       -1.1766945396        1.3959634006
 O         -3.0970467504       -2.0523849997        2.1813848105
 H          0.4650720296       -1.4482107703        1.7022645093
 C          0.9841825692       -1.9392791002        0.8908906190
 C          0.2657654287       -2.6780732698       -0.0423722409
 C          0.9620292182       -3.2965547797       -1.0726096713
 C          2.3362589682       -3.1594725999       -1.1730864318
 C          3.0391025487       -2.3826178603       -0.2710638018
 C          2.3501198892       -1.7593066204        0.7630150586
 N          3.0056641997       -0.9180542708        1.6894304186
 S          2.6172541100        0.7122712093        1.6088833091
 O          3.4172326705        1.3421560588        2.6386870990
 O          1.1917052700        0.8867270695        1.7138455997
 C          3.2161488695        1.2279686396        0.0085290490
 C          2.4864040590        0.9213618600       -1.1226270208
 C          3.0064987886        1.2691227202       -2.3609259309
 C          4.2346455887        1.9056254900       -2.4477475612
 C          4.9549123592        2.2035077296       -1.3004102013
 C          4.4449300196        1.8574745394       -0.0600563412
 H          4.9659067200        2.0696982290        0.8597439386
 H          5.9095425993        2.6999702394       -1.3683040216
 H          4.6317000984        2.1714042102       -3.4148171012
 H          2.4417893082        1.0332461706       -3.2485446707
 H          1.5296894889        0.4283387302       -1.0358966606
 H          4.0128978096       -1.0101264810        1.6757509082
 H          4.1064173287       -2.2498997505       -0.3670121122
 H          2.8629187778       -3.6458233398       -1.9798964121
 H          0.4281943378       -3.8691234694       -1.8130046813
 C         -1.2319871413       -2.7531406496        0.1336225196
 H         -1.4318632110       -3.2766039398        1.0841444796
 C         -1.9322791518       -3.5495629591       -0.9580163403
 C         -3.3330567319       -3.2207043188       -1.3782267697
 C         -2.1919011722       -2.9716654387       -2.3155761801
 H         -2.0885940026       -3.6155342485       -3.1766670803
 H         -1.8792585821       -1.9541024588       -2.4871411899
 H         -4.0076708721       -4.0370618886       -1.5890385897
 H         -3.8105848516       -2.3717195288       -0.9103319593
 H         -1.6854726820       -4.6057508992       -0.9133290207
 O         -0.4826683013       -0.3658785593       -1.3572615600
