  62
        -98.94089214
 C          1.1439574984        1.2474948776        0.0364146386
 C          1.5909893256        0.1956862101        0.8696984987
 C          2.7255734676       -0.5934287503        0.3699762378
 C          3.2260948866       -0.3181352984       -0.8482014406
 C          4.4171801780       -0.9876945577       -1.4730791488
 C          5.7187369632       -0.4420602496       -0.8514772197
 C          6.5177245700       -1.4739072459       -0.0552376055
 H          7.2830125651       -0.9334387015        0.5057754926
 H          7.0289855373       -2.1415222365       -0.7519260624
 C          5.7074944077       -2.3399615535        0.9139334452
 H          6.4228277920       -2.8256566795        1.5810764955
 H          5.2054404469       -3.1369491219        0.3631449146
 C          4.6657878818       -1.5998803084        1.7626748977
 H          4.9310099469       -0.5474569507        1.8652295155
 H          4.6772994796       -2.0310792200        2.7657479095
 C          3.2193429599       -1.7120363213        1.2454577266
 H          2.5407829291       -1.7149199886        2.1040215223
 H          3.0862697304       -2.6652255373        0.7248229914
 H          5.4615833158        0.3994717714       -0.2049629462
 H          6.3604114951       -0.0474821778       -1.6406695600
 H          4.3855641998       -0.7723809880       -2.5414755537
 H          4.3457416429       -2.0645066650       -1.3346696343
 O          2.7402410785        0.6722035947       -1.6409950045
 C          1.6843252396        1.4725937949       -1.2287542953
 O          1.3313611950        2.3271094671       -2.0634381072
 O          1.0594145462       -0.0735156528        1.9817703822
 C         -0.0258338424        2.0988524263        0.4915125989
 C         -1.2191934870        1.8855659834       -0.4081628530
 C         -2.0915884578        2.9019143148       -0.7776257080
 C         -3.1861763348        2.6264231642       -1.5791245052
 C         -3.4535665499        1.3370821176       -2.0027167189
 C         -2.5906031233        0.3124269325       -1.6320227674
 C         -1.4826611890        0.5969619633       -0.8510984171
 H         -0.8042656878       -0.2033747820       -0.5990271626
 N         -2.8208591284       -1.0167006588       -2.0196006451
 S         -2.4763974703       -2.2408384401       -0.9309872136
 O         -1.0572212607       -2.4907890931       -0.8844721858
 O         -3.2939209288       -3.3506175728       -1.3750044351
 C         -3.0819146481       -1.6327320092        0.6336188317
 C         -4.4518477332       -1.5076815308        0.7693637132
 C         -4.9678452350       -0.9843277943        1.9426816082
 C         -4.1081121901       -0.5898884095        2.9571058661
 C         -2.7375616373       -0.7283012986        2.8086255523
 C         -2.2144135475       -1.2545464184        1.6371963850
 H         -1.1491533031       -1.3606268756        1.5020487532
 H         -2.0601768874       -0.4239550755        3.5907570496
 H         -4.5072437509       -0.1744717004        3.8689354686
 H         -6.0342867545       -0.8812261897        2.0616341524
 H         -5.0870608902       -1.8346718667       -0.0377805650
 H         -3.6922659378       -1.1758491336       -2.5034281226
 H         -4.3126277393        1.1240883511       -2.6199984076
 H         -3.8487051939        3.4273563416       -1.8696552375
 H         -1.9099374428        3.9107426322       -0.4454017741
 H         -0.2927772363        1.7154065260        1.4886903487
 C          0.3808617493        3.5517475321        0.6222214915
 C         -0.2555070932        4.4252132400        1.6608417489
 C          1.1639724938        3.9760588396        1.8275248417
 H          1.9558432307        4.6987111051        1.6997500104
 H          1.3794155561        3.2204099266        2.5689803125
 H         -0.4372446253        5.4619901050        1.4210209075
 H         -1.0039824644        3.9799736996        2.2985691942
 H          0.6488690211        3.9948839401       -0.3300987003
