  62
        -98.93552138
 C         -2.2706498166       -1.1077789105       -0.5877235759
 C         -3.3738851233       -0.7084319315        0.2090565004
 C         -3.9446067936        0.6241534713       -0.0475721017
 C         -3.3912256003        1.4038235736       -0.9947639852
 C         -3.7646575608        2.7816075329       -1.5005103826
 C         -4.7487410919        3.6555155565       -0.7278075581
 C         -4.2338246277        4.1570407997        0.6211135411
 H         -3.4383404747        4.8845308805        0.4404806237
 H         -5.0504044528        4.6757457708        1.1279162964
 C         -3.6715123181        3.0868727376        1.5538054723
 H         -3.3310733401        3.5841503335        2.4663928841
 H         -2.7922935185        2.6249006029        1.0983478203
 C         -4.6550186214        1.9917779110        1.9620384899
 H         -4.1726559881        1.3910799944        2.7380736012
 H         -5.5487823564        2.4442551414        2.3960347805
 C         -5.0860345708        1.0351244842        0.8373426455
 H         -5.4598046965        0.1175187481        1.3007946253
 H         -5.8960567370        1.4575684159        0.2478345797
 H         -4.9429858694        4.5319223097       -1.3519793175
 H         -5.6962201554        3.1388793850       -0.6069489489
 H         -4.1566214003        2.6293728904       -2.5122304199
 H         -2.8191802486        3.3217091647       -1.6147266779
 O         -2.3278384194        0.9793458322       -1.7356831893
 C         -1.7341531367       -0.2583213167       -1.5531747495
 O         -0.7662545567       -0.4558190431       -2.3159413204
 O         -3.8755856230       -1.4474816281        1.0978390995
 C         -1.6746322796       -2.4768193486       -0.2985893805
 C         -0.4440759861       -2.3115856832        0.5608986591
 C         -0.4683227027       -2.6415176662        1.9110215607
 C          0.6414371490       -2.4262629300        2.7098970832
 C          1.7950233012       -1.8738198868        2.1821663168
 C          1.8250293787       -1.5357868519        0.8357627204
 C          0.7181855099       -1.7667794767        0.0335476328
 H          0.7420561671       -1.4776851043       -1.0066887642
 N          2.9905786998       -0.9471301639        0.2840407424
 S          3.3284025008        0.5932253689        0.9008249708
 O          3.7232045170        0.4518114221        2.2793222664
 O          2.2200222073        1.4910645929        0.6491714082
 C          4.7352575228        1.0500187813       -0.0920050820
 C          5.9993367828        0.6847348396        0.3288239069
 C          7.0881970524        1.0082008843       -0.4650043568
 C          6.8952224605        1.6844053116       -1.6604095827
 C          5.6198652295        2.0440752021       -2.0695834473
 C          4.5265387987        1.7230858496       -1.2805168610
 H          3.5181291216        1.9902774788       -1.5561229929
 H          5.4716485008        2.5711850111       -2.9984399784
 H          7.7435994518        1.9353911206       -2.2772822155
 H          8.0815537609        0.7319886820       -0.1503027183
 H          6.0993900847        0.1661781914        1.2677626595
 H          2.8877223627       -0.8540016983       -0.7200344402
 H          2.6565197992       -1.6755656397        2.7983250645
 H          0.6061310054       -2.6852842711        3.7574259129
 H         -1.3748258182       -3.0469706358        2.3370665610
 H         -2.4328596211       -2.9994273891        0.2995962988
 C         -1.3967875196       -3.2931968832       -1.5443312369
 C         -1.2086721422       -4.7738384353       -1.4112536766
 C         -2.4475709045       -4.2304921398       -2.0557570873
 H         -2.5651178585       -4.3368870679       -3.1236865396
 H         -3.3761435986       -4.2882343819       -1.5068805005
 H         -0.4731504091       -5.2573011302       -2.0354514435
 H         -1.2965247795       -5.2000436650       -0.4233758023
 H         -0.7993695562       -2.7725289411       -2.2809258546
