  62
        -98.94142699
 C         -2.4138037813       -1.0428070021       -0.5770874553
 C         -3.4742555417       -0.5536523018        0.2316314460
 C         -3.9715787107        0.7881583321       -0.0845016770
 C         -3.4278939096        1.4746400015       -1.1053830909
 C         -3.8295378596        2.8499531207       -1.5640651206
 C         -3.1726535757        3.9860672271       -0.7679406802
 C         -3.7103461247        4.1812146547        0.6503144227
 H         -3.3266151528        5.1383345205        1.0089420813
 H         -4.7977333156        4.2565827183        0.6187234823
 C         -3.2970811530        3.0840137296        1.6415507615
 H         -2.4476976407        2.5265404434        1.2375692930
 H         -2.9573181902        3.5436037184        2.5726829174
 C         -4.4117752389        2.1015254573        2.0022898219
 H         -3.9963024090        1.3473530613        2.6756131399
 H         -5.2057201377        2.6292349975        2.5353564048
 C         -5.0293141593        1.3755102869        0.8000795445
 H         -5.6631234898        2.0572425053        0.2335905800
 H         -5.6433850171        0.5531650163        1.1750469314
 H         -2.0951274258        3.8075089301       -0.7266197041
 H         -3.3353054046        4.9113501662       -1.3255748764
 H         -3.5160800573        2.9340895710       -2.6068024081
 H         -4.9141763915        2.9504888952       -1.5167397875
 O         -2.4294349631        0.9658894311       -1.8716668554
 C         -1.8777465817       -0.2815179737       -1.6156862387
 O         -0.9450363228       -0.5730377698       -2.3925601608
 O         -3.9865024584       -1.2165219920        1.1724160757
 C         -1.8651900712       -2.4154455577       -0.2187776802
 C         -0.6118908602       -2.2555211142        0.6087148582
 C         -0.6070695978       -2.5628876090        1.9642657656
 C          0.5279915794       -2.3587819778        2.7298803273
 C          1.6786161243       -1.8401815527        2.1629164709
 C          1.6794940846       -1.5225670329        0.8112008854
 C          0.5467068700       -1.7423923733        0.0425879049
 H          0.5497120526       -1.4730943761       -1.0034273494
 N          2.8434753389       -0.9696789168        0.2198231217
 S          3.2150633768        0.5955268850        0.7464242186
 O          3.4388834866        0.5571580822        2.1689325149
 O          2.2116865218        1.5341027066        0.2863558853
 C          4.7557708838        0.8706022787       -0.1044240727
 C          5.9173025394        0.3681391774        0.4497493721
 C          7.1130887286        0.5459946932       -0.2273147685
 C          7.1266845707        1.2166094244       -1.4413732929
 C          5.9523761157        1.7150488297       -1.9848616490
 C          4.7527473930        1.5397878821       -1.3128200089
 H          3.8167197762        1.9166620247       -1.6942630878
 H          5.9651720418        2.2376176625       -2.9278947374
 H          8.0582591630        1.3541496710       -1.9672115713
 H          8.0286803486        0.1613375270        0.1920134579
 H          5.8583638129       -0.1397331223        1.3979092040
 H          2.7329425568       -0.9242151784       -0.7867137046
 H          2.5596507509       -1.6523289223        2.7537082849
 H          0.5153816034       -2.6009973702        3.7818740526
 H         -1.5095868283       -2.9432571397        2.4207101977
 H         -2.6323477631       -2.8710815552        0.4216187148
 C         -1.6425702567       -3.3166865951       -1.4161019101
 C         -1.5541508076       -4.7969433257       -1.2010184853
 C         -2.7545380417       -4.2080782174       -1.8777455043
 H         -2.8806654405       -4.3646636241       -2.9384818289
 H         -3.6841692624       -4.1725768539       -1.3286895480
 H         -0.8535969972       -5.3622333240       -1.7959759361
 H         -1.6700900061       -5.1619923647       -0.1918011570
 H         -1.0119866096       -2.8786573926       -2.1783483521
