  62
        -98.93972372
 C         -1.1598410994       -1.3564177312        0.0203309704
 C         -1.5831420899       -0.3190347317        0.8857189107
 C         -2.4848458404        0.6943209081        0.3133821611
 C         -2.7985086404        0.6287532884       -0.9918674189
 C         -3.6778969808        1.5462403182       -1.8056974086
 C         -4.9539399411        2.0790495873       -1.1443052184
 C         -5.6604774906        1.0806633967       -0.2155895187
 H         -6.7096922506        1.0046109562       -0.5068756388
 H         -5.2191398101        0.0889135669       -0.3282741791
 C         -5.6099960908        1.4946745462        1.2568446214
 H         -5.8143243513        2.5651960661        1.3280875018
 H         -6.4056451905        0.9743391656        1.7954837612
 C         -4.2979203906        1.1858185766        1.9769302813
 H         -4.1912092801        0.1050652666        2.1037621909
 H         -4.3533297209        1.6209264162        2.9776784114
 C         -3.0273774709        1.7045034075        1.2832880915
 H         -3.2071829914        2.6667656976        0.8113950818
 H         -2.2540261610        1.8301288076        2.0456883915
 H         -4.7288244916        2.9873671873       -0.5877204781
 H         -5.6292486513        2.3665176873       -1.9521524283
 H         -3.0730914013        2.3909677586       -2.1491040283
 H         -3.9442670106        0.9676165884       -2.6938807688
 O         -2.2869722299       -0.3329726011       -1.8111402493
 C         -1.4673660794       -1.3461742508       -1.3393406796
 O         -1.0959228990       -2.1452256904       -2.2184873599
 H          1.3892806503       -0.7036969204        1.6407862506
 C          1.8562374506       -1.2390202299        0.8238323904
 C          1.1310662311       -2.2252609301        0.1646213301
 C          1.7288576314       -2.8931329694       -0.8961251702
 C          3.0193146612       -2.5751315586       -1.2854826501
 C          3.7405012307       -1.5969103385       -0.6243796097
 C          3.1498647704       -0.9254130891        0.4380958405
 N          3.8792304699        0.0869337410        1.1065656009
 S          4.0873765292        1.5030998614        0.2386910113
 O          4.7827782593        1.1976771022       -0.9842731188
 O          4.7397451487        2.4266094214        1.1377303217
 C          2.4338174989        2.0705084607       -0.1159458585
 C          1.8687281584        3.0310162901        0.6987266219
 C          0.5672413182        3.4363439196        0.4537561920
 C         -0.1458836315        2.8677729896       -0.5896804082
 C          0.4306770090        1.8945680201       -1.3907596085
 C          1.7337520592        1.4881900607       -1.1538780887
 H          2.2116534196        0.7366889012       -1.7620207289
 H         -0.1301350108        1.4414436801       -2.1937451287
 H         -1.1592819317        3.1826135491       -0.7790680581
 H          0.1110082078        4.1890184591        1.0762620723
 H          2.4620792382        3.4485798402        1.4963961020
 H          3.4880144498        0.3186938805        2.0098496409
 H          4.7397089706       -1.3282002179       -0.9258440096
 H          3.4699018615       -3.0979240281       -2.1155937602
 H          1.1751264518       -3.6466494995       -1.4312760704
 C         -0.2925897388       -2.4624255209        0.6005836100
 H         -0.3353740489       -2.3205508313        1.6893068601
 C         -0.8161509881       -3.8433583811        0.2709367395
 C         -0.3110836675       -5.0200131811        1.0493947891
 C         -1.7151379478       -4.5362615619        1.2489404393
 H         -2.5276124875       -5.1356561821        0.8663331891
 H         -1.9510084580       -4.0184660223        2.1673230395
 H          0.4077001224       -4.8282245910        1.8317452192
 H         -0.1575921071       -5.9540966008        0.5313017088
 H         -1.0296195081       -3.9848182408       -0.7809218705
 O         -1.2244952799       -0.2440101219        2.0915645308
