  62
        -98.93816449
 C          2.0328092730        1.3511319436        0.0241575097
 C          2.6276819008        0.6089073126        1.0705555172
 C          3.8329524982       -0.1627623692        0.7263702764
 C          4.2882982861       -0.1422231253       -0.5383022880
 C          5.5153485426       -0.8108260469       -1.1063795324
 C          5.8106330312       -2.2499633175       -0.6634369439
 C          4.5691878189       -3.1130580819       -0.3949383255
 H          3.6745616457       -2.6082580098       -0.7645967403
 H          4.6627131999       -4.0510507834       -0.9454972374
 C          4.3887408009       -3.4548645229        1.0861015032
 H          3.7439805352       -4.3335123887        1.1675302096
 H          5.3611073223       -3.7239277709        1.5042557212
 C          3.7641101360       -2.3540146935        1.9423213884
 H          2.7102141460       -2.2330100260        1.6761710352
 H          3.7941459602       -2.6810174061        2.9845291884
 C          4.4333709828       -0.9734475431        1.8391029225
 H          5.5114619848       -1.0657983823        1.7343309788
 H          4.2183110478       -0.4267546997        2.7612926832
 H          6.4068321447       -2.7067913414       -1.4551312447
 H          6.4337493495       -2.2370504641        0.2296811769
 H          6.3806194617       -0.1818617015       -0.8774339884
 H          5.3760765331       -0.7834263485       -2.1898371288
 O          3.6658317592        0.5645744906       -1.5233378742
 C          2.5251034773        1.3140086277       -1.2796026773
 O          2.0624928343        1.8836810882       -2.2850112359
 O          2.1732538707        0.5934012432        2.2469193425
 C          0.7857138523        2.1657754223        0.3204368685
 C         -0.3863705471        1.5689545698       -0.4194169247
 C         -1.1997013971        2.2833812617       -1.2877232237
 C         -2.2407624461        1.6534561952       -1.9495405474
 C         -2.5004076744        0.3103731777       -1.7523380886
 C         -1.7062733604       -0.4087243190       -0.8665182004
 C         -0.6647834460        0.2233770511       -0.2062875138
 H         -0.0436731902       -0.3381474782        0.4806269948
 N         -1.9736221530       -1.7688186491       -0.6401789458
 S         -3.5681875041       -2.2398212932       -0.4524519724
 O         -3.5171065547       -3.4200928652        0.3818674766
 O         -4.1786279199       -2.4127396762       -1.7471761405
 C         -4.3623288977       -0.8958539864        0.4121625507
 C         -3.8590131899       -0.5231049903        1.6428548476
 C         -4.4476266861        0.5358884818        2.3144364507
 C         -5.5248589054        1.2000331808        1.7475958360
 C         -6.0226055913        0.8095297525        0.5143985210
 C         -5.4360096818       -0.2474519290       -0.1631179381
 H         -5.7878293001       -0.5817386149       -1.1255406491
 H         -6.8615476332        1.3262011610        0.0769686122
 H         -5.9781074051        2.0262764417        2.2720750751
 H         -4.0613175102        0.8403153146        3.2739819534
 H         -3.0226589709       -1.0612394857        2.0600000790
 H         -1.3770434494       -2.1975186634        0.0514200178
 H         -3.2942723152       -0.1964771900       -2.2765243673
 H         -2.8566236182        2.2170860499       -2.6333650812
 H         -1.0115362265        3.3300772835       -1.4585365097
 H          0.6064316888        2.0373860278        1.3981340454
 C          1.0130428430        3.6341573393        0.0361433469
 C          0.1969254470        4.6693341452        0.7491638774
 C          1.6435762563        4.4874639944        1.0942951358
 H          2.3483372169        5.2470535750        0.7908941178
 H          1.8920619706        4.0136296460        2.0328450190
 H         -0.0922867671        5.5589424262        0.2106486579
 H         -0.5399725425        4.3226047434        1.4574460660
 H          1.2990321581        3.8227784178       -0.9920647635
