  62
        -98.93522691
 C          2.3702102704        1.4060700299       -0.0361010947
 C          3.1302874707        0.7457552356        0.9609786914
 C          4.0248776759       -0.3450382419        0.5296027954
 C          4.0726061605       -0.6581660473       -0.7781679521
 C          4.8730072256       -1.7390923652       -1.4553392401
 C          4.2814689345       -3.1405534854       -1.2382883553
 C          3.8515119422       -3.4406598709        0.1951692483
 H          3.1013880357       -2.7102416310        0.5054202450
 H          3.3646345493       -4.4196785716        0.1968631328
 C          4.9832024218       -3.4785166842        1.2197532734
 H          4.5483346806       -3.8049304848        2.1678731382
 H          5.7162626270       -4.2286834085        0.9150899708
 C          5.7117430035       -2.1547926777        1.4640012544
 H          6.4247229833       -1.9449831771        0.6712209973
 H          6.2940670282       -2.2696746733        2.3827359449
 C          4.7945880763       -0.9547197776        1.6762116556
 H          5.3846451532       -0.1341318991        2.1016802042
 H          4.0512419463       -1.2008853206        2.4431630028
 H          5.0168817294       -3.8789005630       -1.5624683443
 H          3.3997309519       -3.2393843032       -1.8767345282
 H          4.8561091835       -1.5170098466       -2.5247460761
 H          5.9069178178       -1.7011947021       -1.1253599682
 O          3.3164236605       -0.0039643412       -1.7040476526
 C          2.4493753195        1.0247533028       -1.3747871683
 O          1.8345347156        1.4899799516       -2.3541527435
 O          3.0713459972        1.0601452461        2.1804930109
 C          1.4664155715        2.5346539811        0.4307742478
 C          0.0687319858        2.0287926309        0.6803140386
 C         -0.5546785711        2.2122705306        1.9084781521
 C         -1.8283854932        1.7180391403        2.1321439516
 C         -2.5050390376        1.0344170534        1.1379440291
 C         -1.8879532353        0.8403028883       -0.0911383086
 C         -0.6126162126        1.3373554341       -0.3127135168
 H         -0.1359497544        1.1821296272       -1.2699828018
 N         -2.5679820372        0.1444491333       -1.1104868738
 S         -3.0734579886       -1.4170877433       -0.7421193304
 O         -2.2269308536       -2.0217400014        0.2615761116
 O         -3.1590594561       -2.1045366097       -2.0121300152
 C         -4.7166517835       -1.1819285460       -0.0979486575
 C         -5.0353665517       -1.6404672024        1.1651820166
 C         -6.3223404463       -1.4464731242        1.6429170320
 C         -7.2619710973       -0.8018697010        0.8530254488
 C         -6.9262720509       -0.3497839208       -0.4146869152
 C         -5.6420697627       -0.5412570099       -0.8986759583
 H         -5.3401741320       -0.2092879286       -1.8780062693
 H         -7.6597123484        0.1508236335       -1.0259849271
 H         -8.2620331485       -0.6509480182        1.2276377680
 H         -6.5851140355       -1.7975499165        2.6278776842
 H         -4.2691538750       -2.1300736532        1.7449580490
 H         -2.0632409433        0.1440193663       -1.9863851550
 H         -3.4961931022        0.6459483623        1.3061904176
 H         -2.2994224981        1.8659096017        3.0917987623
 H         -0.0263466868        2.7299196795        2.6956335714
 H          1.8851589131        2.8374682881        1.4034411181
 C          1.5130827129        3.7524108390       -0.4826566381
 C          0.3554635064        4.2241099751       -1.3058618559
 C          0.7768487707        5.0017992571       -0.0977391325
 H          1.2647955603        5.9546554708       -0.2350557907
 H          0.1402690361        4.9501573380        0.7727160013
 H          0.5718531499        4.6219628425       -2.2856685899
 H         -0.5686677649        3.6702623368       -1.2583002610
 H          2.4956745447        3.8842619909       -0.9248065294
