  62
        -98.93303215
 C         -1.5198782699       -1.0353940207        0.8708237995
 C         -2.7483639599       -1.2968897705        0.2159061094
 C         -3.7802128599       -0.2536375905        0.3529675996
 C         -3.5191983198        0.8679149594        1.0458749599
 C         -4.4681945598        2.0060855593        1.3146306301
 C         -4.9357870198        2.8106513596        0.0863269303
 C         -6.2641378498        2.3339335897       -0.5141926398
 H         -6.8337392498        1.8165703896        0.2588867101
 H         -6.8520904998        3.2073152398       -0.8038091796
 C         -6.1536470299        1.4393500500       -1.7526922000
 H         -7.1286501599        0.9758304400       -1.9182479201
 H         -5.9339288699        2.0612394502       -2.6235272699
 C         -5.0886995999        0.3442371399       -1.6916823802
 H         -4.0992369099        0.7856873400       -1.8324040401
 H         -5.2468650799       -0.3325775099       -2.5336740304
 C         -5.0732454699       -0.4647172703       -0.3801175504
 H         -5.1358308599       -1.5320973903       -0.6014385206
 H         -5.9192185199       -0.1938886404        0.2498238097
 H         -4.1521843798        2.8072213397       -0.6707489197
 H         -5.0632557598        3.8431191795        0.4155777005
 H         -5.3400828798        1.6166601892        1.8453315600
 H         -3.9354082198        2.6729658292        1.9956388802
 O         -2.3156255398        1.0890582692        1.6440103499
 C         -1.2974743799        0.1559754992        1.5659206997
 O         -0.2504356698        0.4925239591        2.1553189397
 O         -2.9967967499       -2.3358385804       -0.4459120308
 C         -0.3368091399       -1.9894652507        0.8442476392
 C          0.5628510801       -1.6547043205       -0.3176102807
 C          0.0582561201       -1.5462244402       -1.6104938707
 C          0.8949171701       -1.2204252600       -2.6614593506
 C          2.2405551101       -0.9785198801       -2.4427865206
 C          2.7532550501       -1.0798089004       -1.1552483806
 C          1.9137424201       -1.4276626205       -0.1046557307
 H          2.3253442201       -1.5015733508        0.8904440393
 N          4.1171973201       -0.8531053504       -0.9062189106
 S          4.5925378701        0.1332642093        0.3612529296
 O          6.0021543401        0.3575292193        0.1273376696
 O          4.2467370901       -0.4791491509        1.6172826895
 C          3.6963552302        1.6546458594        0.1113353699
 C          2.4266477502        1.8094508893        0.6294293500
 C          1.7348573602        2.9799332294        0.3564525902
 C          2.3163473802        3.9686398695       -0.4209770796
 C          3.5952753302        3.7984707696       -0.9307204796
 C          4.2901851802        2.6300356295       -0.6679437899
 H          5.2889441702        2.4594071896       -1.0362643299
 H          4.0488121302        4.5704785397       -1.5312808395
 H          1.7709796002        4.8762975896       -0.6267775294
 H          0.7415453102        3.0974318293        0.7612453003
 H          1.9792709202        1.0401253992        1.2388947298
 H          4.6562587201       -0.6381049803       -1.7331959605
 H          2.8905709501       -0.7159887699       -3.2634568205
 H          0.4945152601       -1.1448413598       -3.6611199906
 H         -0.9929287999       -1.7262299701       -1.7789505007
 H          0.2293382801       -1.7771761409        1.7661483993
 C         -0.7351205999       -3.4575902607        0.8931558490
 C         -0.5335336700       -4.4103268905       -0.2427064512
 C          0.3328882300       -4.5082725907        0.9744780487
 H          0.1930120200       -5.3390522509        1.6495184286
 H          1.3580936300       -4.1785135707        0.8875514588
 H         -1.2926269100       -5.1604267304       -0.4033633714
 H         -0.0912160100       -4.0377100303       -1.1529144012
 H         -1.6192931899       -3.6174747508        1.5011483089
