  62
        -98.94119698
 C         -2.2926649411       -0.6535698005       -0.2870236098
 C         -3.5295899107       -0.9670288100        0.3290957163
 C         -4.3657439537        0.1757018856        0.7170506866
 C         -3.9067340210        1.4240918574        0.5133173150
 C         -4.6726022105        2.6782605131        0.8179313114
 C         -5.4929169815        3.1384243159       -0.3955506763
 C         -6.3311558488        2.0298154182       -1.0322458557
 H         -6.8882178083        2.4775973218       -1.8580123308
 H         -5.6630033982        1.2810240990       -1.4636259142
 C         -7.3090450070        1.3409620927       -0.0702172534
 H         -7.4637747453        1.9650611685        0.8106367611
 H         -8.2754098603        1.2373291162       -0.5680629492
 C         -6.8829779301       -0.0604919620        0.3707670481
 H         -6.6367317788       -0.6619968228       -0.5078023448
 H         -7.7349014464       -0.5355688396        0.8643404206
 C         -5.6989341815       -0.1219328023        1.3439575175
 H         -5.6302894792       -1.1469282587        1.7199755417
 H         -5.8833332967        0.5421033624        2.1909182529
 H         -4.8050711101        3.5247375700       -1.1512380532
 H         -6.1451386821        3.9549868328       -0.0805897885
 H         -5.3294590411        2.4987457347        1.6669126342
 H         -3.9589901995        3.4607262062        1.0817718080
 O         -2.6968484818        1.6865953182       -0.0428296561
 C         -1.8616444021        0.6612499328       -0.4636847934
 O         -0.7934086222        1.0527025579       -0.9720725804
 O         -3.9157053414       -2.1474659750        0.5419806783
 C         -1.3899593409       -1.8001619171       -0.7120353308
 C         -0.1641913362       -1.7828093449        0.1669423756
 C         -0.2823852209       -2.2089787042        1.4875181102
 C          0.7980514127       -2.1512616920        2.3462760474
 C          2.0189867772       -1.6654451178        1.9098742913
 C          2.1442756002       -1.2290322992        0.5985250943
 C          1.0584085568       -1.2976725059       -0.2667799286
 H          1.1649565124       -0.9421370978       -1.2794160592
 N          3.3829196578       -0.7446594953        0.1296235049
 S          4.2215713660        0.3537194444        1.1010319976
 O          4.7953917988       -0.3633549752        2.2126044593
 O          3.3793053785        1.4786830473        1.4447272127
 C          5.5133536153        0.8540239385       -0.0195425571
 C          6.6468363738        0.0696902569       -0.1183591615
 C          7.6406971940        0.4389276745       -1.0105740741
 C          7.4850228925        1.5789529514       -1.7850813643
 C          6.3419637046        2.3564370746       -1.6742330215
 C          5.3432404750        1.9920183837       -0.7846977434
 H          4.4413047323        2.5705770165       -0.6604063597
 H          6.2241729808        3.2433978905       -2.2758737087
 H          8.2600214300        1.8655388420       -2.4782932787
 H          8.5316543137       -0.1615282839       -1.0987784885
 H          6.7263048918       -0.8020106394        0.5097038327
 H          3.2918887279       -0.3626374139       -0.8031094435
 H          2.8653088308       -1.6027204984        2.5740356557
 H          0.6921221128       -2.4843988866        3.3680161818
 H         -1.2397668825       -2.5738724182        1.8336291356
 H         -1.9566121212       -2.7139652977       -0.4866644142
 C         -1.0924687842       -1.7634773725       -2.1956619286
 C         -0.5393799906       -2.9845215031       -2.8659716805
 C         -1.9505597004       -2.5573478417       -3.1327366747
 H         -2.1887170355       -2.1328664668       -4.0965387950
 H         -2.7520629882       -3.1400104859       -2.7029064799
 H          0.1925455298       -2.8574023527       -3.6488496559
 H         -0.3810567648       -3.8583379757       -2.2523771021
 H         -0.7520325754       -0.7939671308       -2.5393807109
