  62
        -98.94077088
 C          1.8362444392        1.1670021272        0.1690398215
 C          2.1691140802        0.1745373845        1.1270639491
 C          2.8533350923       -1.0218230860        0.6247654556
 C          3.0844685568       -1.1358716181       -0.6953391550
 C          3.8035563619       -2.2814522609       -1.3455256198
 C          5.3121484638       -2.0134583487       -1.4411378860
 C          5.9399156359       -1.5439017278       -0.1287809569
 H          7.0094229237       -1.4151914895       -0.3080835854
 H          5.5353290591       -0.5620070606        0.1270229925
 C          5.7301221670       -2.5009336435        1.0528799100
 H          5.4442552882       -3.4867444775        0.6844971734
 H          6.6774454084       -2.6147175265        1.5838308298
 C          4.6988584063       -2.0252514826        2.0776793164
 H          4.9280428196       -1.0002445723        2.3792936376
 H          4.7864061455       -2.6559149664        2.9662164008
 C          3.2342706258       -2.0773995322        1.6244502633
 H          3.0022041808       -3.0720006664        1.2374206147
 H          2.6069539048       -1.8960226923        2.5020876059
 H          5.8036772946       -2.9287719219       -1.7757625159
 H          5.4787365876       -1.2422234965       -2.1967750264
 H          3.6190423852       -3.1881053590       -0.7721625370
 H          3.3990982361       -2.4126777788       -2.3508962585
 O          2.7215385116       -0.1846190994       -1.5903728986
 C          2.0772788799        0.9807676616       -1.1920342525
 O          1.7931190417        1.7382836396       -2.1405172414
 H         -0.4177160774        1.4717682872       -1.3195626868
 C         -0.9931357383        1.6227288753       -0.4172043700
 C         -0.3691152211        2.1225433551        0.7183348260
 C         -1.1293526742        2.3021342241        1.8673276368
 C         -2.4767478474        1.9829924333        1.8805850307
 C         -3.0873593126        1.4616078831        0.7533872948
 C         -2.3343130605        1.2814252821       -0.3989326240
 N         -2.9431273010        0.6743516419       -1.5344846655
 S         -2.7557418758       -1.0046463651       -1.4738072096
 O         -1.3992194021       -1.3742817636       -1.1268846775
 O         -3.2424527350       -1.5023227619       -2.7419707909
 C         -3.8663514201       -1.4631148407       -0.1641392542
 C         -3.3569679743       -1.6959973623        1.0981731077
 C         -4.2340364658       -2.0078901133        2.1251791329
 C         -5.5957580958       -2.0785496891        1.8725149315
 C         -6.0905010199       -1.8434137919        0.5981469946
 C         -5.2195503554       -1.5299043755       -0.4331335714
 H         -5.5554123866       -1.3424423757       -1.4394461439
 H         -7.1497226263       -1.9012234375        0.4061637491
 H         -6.2748538194       -2.3195934044        2.6750246163
 H         -3.8497380269       -2.1894978909        3.1159624013
 H         -2.2907176615       -1.6272653236        1.2488095143
 H         -2.5266687234        0.9909805799       -2.4013611201
 H         -4.1318849303        1.1961921799        0.7545655753
 H         -3.0532924138        2.1282187507        2.7807935113
 H         -0.6507392153        2.6744933152        2.7610867922
 C          1.1132636841        2.3944778970        0.6991538206
 H          1.4444024329        2.4878928394        1.7457125620
 C          1.4833677409        3.6855892104       -0.0148132214
 C          0.5377309019        4.4439854644       -0.8927857720
 C          0.9027434211        4.9872112980        0.4540096615
 H          1.5465416487        5.8516594245        0.5083555621
 H          0.1509439031        4.9433104671        1.2274515284
 H          0.9449530477        4.9130084663       -1.7754603914
 H         -0.4575435825        4.0518206195       -1.0325140238
 H          2.5257427722        3.6965782111       -0.3159771419
 O          1.9056541308        0.2935216564        2.3539252653
