  62
        -98.94547954
 C          1.7712831547        1.4227614974        0.2081889593
 C          1.5521900312        0.0924635109       -0.2254737486
 C          2.5657277265       -0.8879786283        0.1925880496
 C          3.6002294384       -0.4872036054        0.9535180105
 C          4.7282930802       -1.3701592659        1.4010615139
 C          5.8880659881       -1.3438457859        0.3956255998
 C          5.4550238636       -1.5697186993       -1.0529295685
 H          4.8402816388       -0.7265842973       -1.3762862739
 H          6.3582208607       -1.5623212335       -1.6670765208
 C          4.6860429035       -2.8771479747       -1.2888306571
 H          4.8554811152       -3.5615328442       -0.4568397440
 H          5.0794197188       -3.3568545203       -2.1876314434
 C          3.1815483068       -2.6978592472       -1.5005664324
 H          3.0089669257       -1.9438961489       -2.2725677375
 H          2.7771535819       -3.6438154311       -1.8702550295
 C          2.3730210179       -2.3089403201       -0.2564127561
 H          1.3124154995       -2.3944843564       -0.5079680588
 H          2.5948565472       -3.0023593209        0.5570642259
 H          6.6125733018       -2.1076371446        0.6841597148
 H          6.3790886263       -0.3698701412        0.4581607618
 H          5.0876449003       -1.0071874506        2.3654501037
 H          4.3612679390       -2.3875531366        1.5207298316
 O          3.7620273918        0.7953215247        1.3695664762
 C          2.8571254630        1.7789485249        1.0089938012
 O          3.1211889094        2.9124514986        1.4588386570
 H         -1.5212829805        1.7626107718       -1.4778663493
 C         -1.6278491993        1.7655153644       -0.4050065332
 C         -0.5650229128        2.1478012362        0.3960696919
 C         -0.7304444403        2.1260071067        1.7785222569
 C         -1.9305298760        1.7360221798        2.3410997746
 C         -2.9881708181        1.3457369584        1.5374775062
 C         -2.8285407123        1.3529338998        0.1589499604
 N         -3.8900818470        0.9396688831       -0.6679402841
 S         -4.6225206774       -0.5273624371       -0.3287360156
 O         -5.3031582862       -0.8963539378       -1.5497558301
 O         -5.4555189329       -0.3830680613        0.8394047065
 C         -3.2934534650       -1.6667618175        0.0067701976
 C         -2.5879138684       -2.1799542448       -1.0627766675
 C         -1.5347104232       -3.0445826449       -0.8187706569
 C         -1.1997561599       -3.3709609078        0.4860504980
 C         -1.9138258261       -2.8423481858        1.5495665310
 C         -2.9729726070       -1.9818549606        1.3112205267
 H         -3.5591540877       -1.5597516577        2.1107723437
 H         -1.6477415399       -3.0966490082        2.5631083479
 H         -0.3766615098       -4.0422249857        0.6756388076
 H         -0.9754577792       -3.4537736052       -1.6448934357
 H         -2.8801493454       -1.9085760083       -2.0644337358
 H         -3.6706475177        0.9937072056       -1.6523998676
 H         -3.9302268809        1.0326363707        1.9572841260
 H         -2.0448412435        1.7310110481        3.4145768595
 H          0.1027172415        2.4137541620        2.4056709507
 C          0.7862007951        2.5191881255       -0.1624781460
 H          1.1330595149        3.4271032215        0.3494867413
 C          0.7941497166        2.7679858581       -1.6558255249
 C          0.2451985560        4.0524509414       -2.1982957643
 C          1.7223698665        3.8005481701       -2.2175577508
 H          2.2001438375        3.6033503971       -3.1656253055
 H          2.3451940803        4.3423886934       -1.5207261639
 H         -0.2903525733        4.0324171155       -3.1354607740
 H         -0.1379241500        4.7698304951       -1.4884608808
 H          0.6498898465        1.8648380290       -2.2371354414
 O          0.5702194959       -0.2627969986       -0.9270250332
