  62
        -98.94126632
 C          2.5225247505       -0.2900883262        0.0173526869
 C          2.1111286888       -1.2564930960        0.9617734790
 C          1.4143958047       -2.4452888797        0.4395189327
 C          1.2216860561       -2.5624998620       -0.8876641494
 C          0.5795509792       -3.6552432432       -1.7183204644
 C         -0.1296698090       -4.8258632727       -1.0452792211
 C         -1.4691569908       -4.4650323440       -0.3990005101
 H         -2.2047121557       -4.3226385703       -1.1945257997
 H         -1.7979653570       -5.3070288139        0.2136675652
 C         -1.4760744306       -3.1977313567        0.4528902654
 H         -1.1729567074       -2.3369134158       -0.1475534342
 H         -2.5059209761       -3.0065713740        0.7701167302
 C         -0.6160346671       -3.2443350267        1.7133923510
 H         -0.9503408724       -4.0592724855        2.3600466917
 H         -0.7763219948       -2.3009037024        2.2444915864
 C          0.8931355671       -3.3993431048        1.4763035983
 H          1.4077425008       -3.1458813061        2.4084528642
 H          1.1475228412       -4.4274828218        1.2305974769
 H          0.5352734320       -5.2995422611       -0.3288355171
 H         -0.3297435530       -5.5639357322       -1.8266455848
 H          1.3826970263       -4.0492982946       -2.3508772339
 H         -0.1201374085       -3.1466019730       -2.3895600548
 O          1.6747385919       -1.6198806828       -1.7658956273
 C          2.2677818622       -0.4448236611       -1.3434872453
 O          2.5391041674        0.3522400774       -2.2630362654
 O          2.3182428055       -1.1320084415        2.2012181665
 C          3.1023260885        1.0259376102        0.5084648159
 C          2.1123275906        2.1141337723        0.1675696040
 C          2.4396634756        3.3013393815       -0.4726537637
 C          1.4453576452        4.1989176047       -0.8258226741
 C          0.1140142633        3.9242549658       -0.5732497032
 C         -0.2202719859        2.7472471863        0.0883936283
 C          0.7799111599        1.8759930779        0.4804386866
 H          0.5092747525        0.9677663583        0.9994431056
 N         -1.5572196231        2.4143243128        0.3722290848
 S         -1.9530144753        0.7676525472        0.3256189365
 O         -1.6792570894        0.1977423714        1.6205505176
 O         -1.3317319406        0.1339574248       -0.8151572356
 C         -3.7182772488        0.8681069479        0.0909584165
 C         -4.5173429546        1.1375688846        1.1862997811
 C         -5.8865641601        1.2501950482        1.0052169250
 C         -6.4314316777        1.0919156930       -0.2606213392
 C         -5.6175646129        0.8183302379       -1.3495746002
 C         -4.2467721739        0.7064716408       -1.1754565207
 H         -3.5744491405        0.4875851194       -1.9897426628
 H         -6.0435008155        0.6913875723       -2.3317835034
 H         -7.4974411075        1.1792574905       -0.3990678579
 H         -6.5225438939        1.4595363713        1.8500342648
 H         -4.0483600333        1.2416800325        2.1507677995
 H         -2.2194565031        2.9739512215       -0.1480515016
 H         -0.6599290215        4.6087689033       -0.8856289591
 H          1.7108432302        5.1153415318       -1.3309298143
 H          3.4681798131        3.5154598602       -0.7130120946
 H          3.1565411304        0.9340861572        1.6037234883
 C          4.4924115118        1.2659815458       -0.0367809103
 C          5.4590952661        2.1247044287        0.7214325562
 C          5.6627045051        0.6416588605        0.6602757137
 H          6.4721039074        0.2540519975        0.0602802967
 H          5.4574169530        0.0581248006        1.5459606752
 H          6.1341926480        2.7563239950        0.1642104631
 H          5.1221662906        2.5510164983        1.6541988652
 H          4.5134244091        1.2987767033       -1.1200463815
