  62
        -98.94532662
 C         -2.3616775730       -0.3793006102        0.0937915565
 C         -1.5549719200        0.2788521608       -0.8612866115
 C         -1.5958694281        1.7516050988       -0.8576444296
 C         -2.3459036280        2.3846262594        0.0609260047
 C         -2.6133256084        3.8609848586        0.2326812310
 C         -1.4789530253        4.8486806134       -0.0508782906
 C         -0.0952888786        4.3969310793        0.4376269464
 H         -0.1859684964        3.5102099974        1.0691027191
 H          0.3437344014        5.1873732055        1.0496036330
 C          0.8705884463        4.0880930752       -0.7072323015
 H          1.8925103159        4.1256410832       -0.3215036523
 H          0.7761665116        4.8589596027       -1.4756764765
 C          0.6775486223        2.7104366344       -1.3354460922
 H          0.9075882455        1.9489150209       -0.5864313524
 H          1.4020220660        2.5997221336       -2.1462714737
 C         -0.7317022295        2.4274322484       -1.8846072397
 H         -0.6368180092        1.7137793756       -2.7075069762
 H         -1.1952228658        3.3339829051       -2.2669075182
 H         -1.7519485268        5.7840061969        0.4415857495
 H         -1.4326050466        5.0581394466       -1.1183665441
 H         -3.4727877835        4.1166911212       -0.3956720313
 H         -2.9361418889        3.9697456344        1.2715912087
 O         -3.0671491874        1.7067576419        1.0016288900
 C         -3.0928168499        0.3251044773        1.0460283243
 O         -3.7949917811       -0.1505931071        1.9635559539
 H         -0.4211543777       -0.9753844233        1.6483364460
 C         -0.1139441280       -1.8438868957        1.0836739949
 C         -1.0174210082       -2.4658807047        0.2317925462
 C         -0.5984500903       -3.5891490354       -0.4711402401
 C          0.6984444190       -4.0554172315       -0.3412581413
 C          1.6088423317       -3.4011033186        0.4683569930
 C          1.1966711677       -2.2812936252        1.1813093679
 N          2.0897168432       -1.5607759896        2.0025443472
 S          2.3954665953        0.0321008465        1.5751721355
 O          3.3770487794        0.4940926160        2.5337027630
 O          1.1615446479        0.7718674067        1.5228721754
 C          3.1602054345       -0.0779619565       -0.0344493194
 C          4.5303521443        0.0840071601       -0.1168782604
 C          5.1528767909       -0.0558369978       -1.3461633971
 C          4.3984080572       -0.3648973736       -2.4680952861
 C          3.0260252503       -0.5291430597       -2.3671469694
 C          2.3936452019       -0.3869205048       -1.1407696882
 H          1.3240039340       -0.5012294212       -1.0543798354
 H          2.4304770977       -0.7676070929       -3.2337052499
 H          4.8812698022       -0.4770767751       -3.4261104969
 H          6.2202050133        0.0745456907       -1.4247254041
 H          5.0735776909        0.3245132049        0.7827624002
 H          2.9713582714       -2.0329086308        2.1525476704
 H          2.6279856044       -3.7481686436        0.5494306077
 H          1.0092015263       -4.9292302892       -0.8931732845
 H         -1.2874301078       -4.0973440240       -1.1257498934
 C         -2.4110918983       -1.8959873341        0.1292136791
 H         -2.9601501697       -2.1612799447        1.0452059828
 C         -3.1816825225       -2.4131806078       -1.0694891580
 C         -3.9896395728       -3.6712453508       -0.9689964999
 C         -4.6780282372       -2.3427737695       -1.0488252154
 H         -5.1953523513       -2.0806104340       -1.9594812405
 H         -5.1405863976       -1.9475905674       -0.1557301657
 H         -3.9973076245       -4.1871781421       -0.0207313440
 H         -4.0396266617       -4.3228193819       -1.8283862260
 H         -2.6840875310       -2.1948959613       -2.0075539806
 O         -0.8476223824       -0.3377633871       -1.7013001732
