  62
        -98.93384017
 C          2.3279407179       -1.4808536585       -0.0136516739
 C          3.0556981551       -0.7588314771       -0.9950157462
 C          3.9171782288        0.3268048001       -0.5112290269
 C          3.9819191392        0.5820563807        0.8073127062
 C          4.8402985538        1.6166809777        1.4853118010
 C          4.5104486016        3.0869163491        1.1627333555
 C          5.3404875329        3.6840760958        0.0195768310
 H          5.6119947601        4.7086135447        0.2818681906
 H          6.2728837614        3.1248566912       -0.0663863940
 C          4.6512383907        3.7417964819       -1.3469570902
 H          3.9471077160        4.5770032411       -1.3560838533
 H          5.4166478028        3.9484346548       -2.0980822952
 C          3.8775446175        2.4895392712       -1.7614199362
 H          3.6181638535        2.5840496166       -2.8178107906
 H          2.9302532508        2.4444772925       -1.2173073659
 C          4.6283541402        1.1628480810       -1.5348452011
 H          5.6571256661        1.3496246886       -1.2306219534
 H          4.6404513038        0.5805184308       -2.4582432259
 H          4.7129243743        3.6622596245        2.0675919731
 H          3.4450212102        3.1828813501        0.9523650841
 H          4.7081326697        1.4481398447        2.5560755891
 H          5.8866135839        1.4183433778        1.2422132180
 O          3.2694207782       -0.1322829524        1.7188349608
 C          2.4144888740       -1.1604340148        1.3410188375
 O          1.8184193460       -1.6846273731        2.3018912470
 O          2.9984257972       -1.0248194099       -2.2251605926
 C          1.4354967450       -2.6022928818       -0.5193646830
 C          0.0313682882       -2.0980135926       -0.7341816848
 C         -0.5981088945       -2.2177586038       -1.9669887506
 C         -1.8744224116       -1.7161399225       -2.1577353485
 C         -2.5466985151       -1.0859182218       -1.1259150880
 C         -1.9238555853       -0.9572250877        0.1087038531
 C         -0.6477799085       -1.4639855469        0.2980834315
 H         -0.1669529706       -1.3585953840        1.2600953534
 N         -2.5976082630       -0.3051694331        1.1638661829
 S         -2.9632104321        1.3165458774        0.8935599706
 O         -2.0274478022        1.9186702055       -0.0299304183
 O         -3.0507301237        1.9182246500        2.2063662087
 C         -4.5892924126        1.2617710740        0.1703631787
 C         -5.6133032259        0.7130918348        0.9177029862
 C         -6.8856527930        0.6600256208        0.3715042301
 C         -7.1114953499        1.1559473152       -0.9041172385
 C         -6.0734087038        1.7064740622       -1.6401186207
 C         -4.7976474422        1.7614365467       -1.1001317747
 H         -3.9582134880        2.1751557873       -1.6358867022
 H         -6.2508495867        2.0914578755       -2.6314214875
 H         -8.1026353967        1.1135457745       -1.3272702284
 H         -7.6954051527        0.2329221432        0.9407771225
 H         -5.3944686354        0.3449572977        1.9060943593
 H         -2.1095866077       -0.3932157460        2.0452044897
 H         -3.5393777204       -0.6907697135       -1.2681004686
 H         -2.3499125184       -1.8145904736       -3.1215171635
 H         -0.0722193000       -2.6905195359       -2.7834528776
 H          1.8487181003       -2.8576261371       -1.5078328166
 C          1.5039115840       -3.8572816549        0.3403549168
 C          0.3522160938       -4.3879691232        1.1356510473
 C          0.7951016244       -5.1031748888       -0.1029642482
 H          1.3018516525       -6.0509575772       -0.0045430850
 H          0.1618475148       -5.0263875094       -0.9739668402
 H          0.5719095316       -4.8242051134        2.0982246479
 H         -0.5829777588       -3.8515839300        1.1070529253
 H          2.4867934483       -3.9885470390        0.7816634109
