  62
        -98.94892366
 C          2.2404921295        0.8359630645        0.0775783517
 C          1.5863558847        0.1058869586       -0.9435427269
 C          1.9729590094       -1.3048672107       -1.0746159630
 C          2.8699238133       -1.8234782256       -0.2169190876
 C          3.3601913782       -3.2422091396       -0.2380807552
 C          2.5222747648       -4.1543585197        0.6668174264
 C          1.0141822204       -4.0352584648        0.4462670522
 H          0.5316230856       -4.7669401973        1.0991337544
 H          0.6723408357       -3.0501616944        0.7727304898
 C          0.5598334975       -4.2655271316       -1.0017178696
 H          1.3356317648       -4.7940686412       -1.5580855862
 H         -0.3257581666       -4.9045147340       -0.9888533163
 C          0.1738656476       -2.9845575326       -1.7439760288
 H         -0.4894991473       -2.3934355884       -1.1074512543
 H         -0.3857815978       -3.2627253714       -2.6413004115
 C          1.3424547008       -2.0943245104       -2.1869378380
 H          2.0916228038       -2.6992848879       -2.7031422857
 H          0.9504426962       -1.3557941957       -2.8924265450
 H          2.8353592761       -5.1867112988        0.4965143843
 H          2.7354865170       -3.9024554722        1.7084763123
 H          3.3339506517       -3.6097677518       -1.2623336745
 H          4.3935936434       -3.2497018814        0.1142606914
 O          3.4309892746       -1.1066052758        0.7919844445
 C          3.1210116373        0.2312945329        0.9716832045
 O          3.6878196625        0.7663059964        1.9487746928
 H          0.3738103151        0.9542772530        1.9072048819
 C         -0.2047009080        1.6607963800        1.3235048055
 C          0.4477424075        2.4921030065        0.4209847444
 C         -0.3114065455        3.3959140966       -0.3107710865
 C         -1.6892065340        3.4296179914       -0.1765996948
 C         -2.3386131016        2.5511822158        0.6719502644
 C         -1.5836505867        1.6665300262        1.4292238633
 N         -2.2611793022        0.6972387286        2.2300815475
 S         -2.2765787383       -0.7882073528        1.4179701258
 O         -3.0223346083       -1.6930844461        2.2680017387
 O         -0.9354702708       -1.2211504182        1.0894202171
 C         -3.2076591021       -0.4057548709       -0.0450514856
 C         -2.5529037739        0.0154531302       -1.1854851378
 C         -3.3099644957        0.3561693316       -2.2962630574
 C         -4.6928667167        0.2750730968       -2.2470093578
 C         -5.3331651017       -0.1491563185       -1.0918934353
 C         -4.5850759153       -0.4909686802        0.0225101916
 H         -5.0337029385       -0.8289515248        0.9422075372
 H         -6.4088650505       -0.2116011695       -1.0560371776
 H         -5.2743064221        0.5446459473       -3.1146739471
 H         -2.8066500578        0.6889141633       -3.1897246914
 H         -1.4749992455        0.0799098773       -1.1995111098
 H         -1.8097032967        0.5497862689        3.1239755478
 H         -3.4131121919        2.5352635244        0.7542752373
 H         -2.2652814134        4.1303338031       -0.7606823296
 H          0.1759730159        4.0612425462       -1.0044965965
 C          1.9367825071        2.3143334517        0.2622344269
 H          2.4298924223        2.6144263306        1.1983936733
 C          2.5250225103        3.1126734503       -0.8824532494
 C          2.9299679883        4.5408677303       -0.6777612751
 C          3.9765244767        3.4802740599       -0.8369376318
 H          4.5456924890        3.4472739069       -1.7537079814
 H          4.5371226013        3.1741035909        0.0346271944
 H          2.7852621461        5.2397103778       -1.4875681825
 H          2.7861802008        4.9656075426        0.3041579127
 H          2.1122066626        2.8271262240       -1.8431481626
 O          0.7375604435        0.6137526935       -1.7219632956
