  62
        -98.94289499
 C         -2.4490174857       -0.0436886863        0.0450184785
 C         -1.5829265251        0.3960492571       -0.9840984311
 C         -1.2694501679        1.8302420406       -1.0002521648
 C         -1.7739503008        2.6219713167       -0.0373726022
 C         -1.4280664358        4.0695269049        0.1637122739
 C         -0.0472281184        4.1731592507        0.8447812977
 C          1.0343106972        4.8293409785       -0.0139427434
 H          0.8628700540        5.9080983661       -0.0406065781
 H          1.9896229544        4.6562411639        0.4869321316
 C          1.1318374917        4.3302198009       -1.4588958210
 H          2.0960407179        4.6655698475       -1.8467142730
 H          0.3649155197        4.8148662353       -2.0656232602
 C          1.0250900052        2.8116589918       -1.6501013781
 H          1.7360617942        2.5133910169       -2.4237994067
 H          1.3090943265        2.2871813450       -0.7365750141
 C         -0.3670632288        2.3240764521       -2.0963164039
 H         -0.8717780181        3.1140312315       -2.6594972411
 H         -0.2398449756        1.4681029375       -2.7653871737
 H          0.2753303038        3.1671285792        1.1251143144
 H         -0.1396309367        4.7415256869        1.7722986025
 H         -1.4244498947        4.5869924902       -0.7931538642
 H         -2.1991582243        4.5082223766        0.7977923059
 O         -2.6005430581        2.1640704641        0.9393189583
 C         -2.9328926953        0.8220802481        1.0224025556
 O         -3.6550405122        0.5275065240        1.9994432187
 H         -0.8531492237       -0.8913543968        1.9176146025
 C         -0.5362818822       -1.7165733760        1.2905837473
 C         -1.4190005695       -2.2331292008        0.3488107506
 C         -0.9965564422       -3.2975957367       -0.4356622586
 C          0.2922952221       -3.7910872310       -0.3162289894
 C          1.1904095802       -3.2203588996        0.5677969940
 C          0.7635916529       -2.1790773987        1.3803997151
 N          1.7139408028       -1.5258904683        2.2237787608
 S          2.2122874033       -0.0770085060        1.5061768679
 O          3.1994004261        0.4854871776        2.4044230988
 O          1.0883817017        0.7886304635        1.2162241328
 C          2.9880137242       -0.6477573997        0.0146218653
 C          4.3202120559       -1.0093599898        0.0736020570
 C          4.9316140687       -1.5027662622       -1.0671333834
 C          4.2007332449       -1.6317836890       -2.2390629144
 C          2.8638692466       -1.2676185889       -2.2788266292
 C          2.2445992176       -0.7704429537       -1.1422395125
 H          1.2033132143       -0.4870556855       -1.1486403273
 H          2.2883344599       -1.3702837139       -3.1847186052
 H          4.6748186401       -2.0189619204       -3.1272363954
 H          5.9711868254       -1.7870519414       -1.0388162638
 H          4.8439123965       -0.8881803488        1.0075995170
 H          1.3334241757       -1.3002065150        3.1341654947
 H          2.2105512819       -3.5614239291        0.6349061133
 H          0.6095552581       -4.6101854452       -0.9426629830
 H         -1.6698995014       -3.7241270950       -1.1609834551
 C         -2.7448789535       -1.5287698171        0.1915544099
 H         -3.3193619316       -1.6384379598        1.1226307078
 C         -3.5756419221       -2.0352233205       -0.9670023300
 C         -4.4576258860       -3.2340053577       -0.7918789176
 C         -5.0636590895       -1.8693624898       -0.9180286678
 H         -5.5839784306       -1.6158358653       -1.8292808131
 H         -5.4818878917       -1.4077728189       -0.0350562656
 H         -4.4729321087       -3.7061592560        0.1787832861
 H         -4.5673790293       -3.9191207549       -1.6186610855
 H         -3.0877296707       -1.8899090815       -1.9234715568
 O         -1.0848956376       -0.3768530270       -1.8446136922
