  62
        -98.93937457
 C         -2.1002711475       -1.0120219606        0.2644987684
 C         -1.8976370254        0.0876452977       -0.6076498718
 C         -2.4089540327        1.3813405139       -0.1297902519
 C         -2.9908130530        1.4763730139        1.0780112362
 C         -3.5376976360        2.7292676179        1.7073103209
 C         -4.9609377026        3.0851777595        1.2557009517
 C         -5.0771639499        3.6192462742       -0.1725356245
 H         -6.0818422091        4.0330008574       -0.2789216875
 H         -4.3704292217        4.4379131748       -0.3111631245
 C         -4.8615430248        2.5618921291       -1.2643794535
 H         -5.6399742425        2.6583020470       -2.0245257335
 H         -4.9586578763        1.5641460021       -0.8304251819
 C         -3.5146026080        2.6570711018       -1.9815592011
 H         -3.4561039023        3.5992910522       -2.5311264713
 H         -3.4510062995        1.8401021618       -2.7049032073
 C         -2.2986777276        2.5582422373       -1.0512313424
 H         -1.4021634133        2.4161652797       -1.6610609430
 H         -2.1839369697        3.4788411619       -0.4787927947
 H         -5.5928355868        2.2011120240        1.3668003462
 H         -5.3364601964        3.8508090008        1.9384349554
 H         -3.5519172157        2.5530677100        2.7850488270
 H         -2.8671405772        3.5640412075        1.5008272236
 O         -3.1399825716        0.4034630966        1.9002775608
 C         -2.7116663055       -0.8536451007        1.5106866156
 O         -2.9349862492       -1.7490517856        2.3523240003
 H          0.4601596513       -0.6751765510       -0.0073306977
 C          0.7377679571       -1.6692376701        0.3062971031
 C         -0.2119362483       -2.6783198207        0.3496609252
 C          0.1834139535       -3.9504726307        0.7503211023
 C          1.4988258521       -4.2042291844        1.0916412173
 C          2.4442941582       -3.1963401717        1.0421896636
 C          2.0578557188       -1.9173103866        0.6555183853
 N          2.9908881994       -0.8696191594        0.6584747646
 S          2.7735629125        0.4850431177       -0.3207695261
 O          1.7804318030        1.3390760141        0.2808253427
 O          2.5596538617        0.0852727402       -1.6927880851
 C          4.3867328105        1.2285130873       -0.1540104499
 C          5.3395360141        1.0042257389       -1.1297642153
 C          6.6010845436        1.5576560136       -0.9764120601
 C          6.8882919241        2.3198142705        0.1459023569
 C          5.9215345982        2.5378323695        1.1164028846
 C          4.6579657280        1.9881580502        0.9681874929
 H          3.8719189350        2.1373194857        1.6901591806
 H          6.1470382016        3.1335487475        1.9861555151
 H          7.8706414624        2.7490858994        0.2637171268
 H          7.3529861303        1.3926899308       -1.7311406548
 H          5.0667964403        0.4128327123       -1.9890226656
 H          3.9496030862       -1.1891763810        0.6554990009
 H          3.4709391214       -3.3907535692        1.3118653149
 H          1.7923470166       -5.1960241641        1.3999112251
 H         -0.5509343072       -4.7399128297        0.8003689013
 C         -1.6487132070       -2.4261404636       -0.0505738892
 H         -2.2805413123       -3.0847425727        0.5632916013
 C         -1.8385458556       -2.8058609053       -1.5081632085
 C         -2.1958641547       -4.2135827210       -1.8741731634
 C         -3.2133498084       -3.1219585210       -2.0120947961
 H         -3.4881081480       -2.7836133676       -2.9996369287
 H         -4.0234057277       -3.0866727634       -1.2976998429
 H         -2.3317008668       -4.9255343439       -1.0745138027
 H         -1.7676061481       -4.6336273438       -2.7711542946
 H         -1.1802357647       -2.2621347618       -2.1742872250
 O         -1.3290704267        0.0205855882       -1.7293546863
