  62
        -98.93978745
 C          0.7252775251        1.7857147137        0.0839930877
 C          1.9326300489        1.6309847823        0.8052942958
 C          2.9255517233        0.6881370831        0.2581187326
 C          2.6188259577        0.0087873569       -0.8619282709
 C          3.4795170111       -0.9978376240       -1.5765687334
 C          3.4924475964       -2.3816589089       -0.8947286168
 C          3.3722611239       -2.3588697279        0.6291687613
 H          2.5161877241       -1.7450437198        0.9212512451
 H          3.1564830280       -3.3767770155        0.9671494005
 C          4.6227757336       -1.8814461974        1.3659289288
 H          5.4108917242       -2.6284790817        1.2402092233
 H          4.3815967463       -1.8282436679        2.4308110218
 C          5.1812404713       -0.5313185708        0.9212890877
 H          5.5770422417       -0.6045336628       -0.0881329638
 H          6.0276915291       -0.2978273748        1.5742043473
 C          4.2147486376        0.6449593817        1.0402494238
 H          3.9178760814        0.7542397200        2.0895411548
 H          4.7598818270        1.5646984722        0.7919591663
 H          2.6485424267       -2.9580140078       -1.2789425071
 H          4.4083768481       -2.9034320496       -1.1763270877
 H          3.0711079550       -1.1054200707       -2.5832034340
 H          4.4863028177       -0.5985126422       -1.6707954281
 O          1.4192683158        0.1404820653       -1.4905724361
 C          0.4395706133        1.0103575179       -1.0401488211
 O         -0.6042790148        0.9938228329       -1.7169655311
 H         -0.8667297468        0.3208208060        1.5332302247
 C         -1.7594151447        0.8269014392        1.1950316702
 C         -1.6681211522        2.1125457548        0.6757364670
 C         -2.8340472587        2.7390046945        0.2544660977
 C         -4.0530867800        2.0901644433        0.3504544411
 C         -4.1348780718        0.8027117557        0.8464725426
 C         -2.9722224236        0.1641344458        1.2634396844
 N         -3.0045815584       -1.1513972807        1.7601383157
 S         -1.8341390892       -2.2353113917        1.2724832121
 O         -2.3977170527       -3.5319217366        1.5941938346
 O         -0.5730716304       -1.9371415722        1.9062190367
 C         -1.6782828080       -2.1019140597       -0.4994033705
 C         -2.7855631536       -1.8391589617       -1.2797048259
 C         -2.6383727911       -1.7964878209       -2.6560688913
 C         -1.3988803524       -2.0310652080       -3.2280273075
 C         -0.3000216927       -2.3068533811       -2.4319599772
 C         -0.4391339465       -2.3397579804       -1.0547872919
 H          0.3932300032       -2.5279029407       -0.3945642617
 H          0.6665420562       -2.4807413749       -2.8775021716
 H         -1.2858339604       -1.9909392255       -4.3000162576
 H         -3.4906241660       -1.5736336575       -3.2776944441
 H         -3.7431352438       -1.6597107830       -0.8193350198
 H         -3.9180063749       -1.5821195860        1.7647858270
 H         -5.0847034706        0.2935952376        0.9111353838
 H         -4.9509723500        2.5907892419        0.0217041042
 H         -2.7909862035        3.7315135471       -0.1621597049
 C         -0.3045276577        2.7564529703        0.6297477648
 H          0.0141256913        2.9304423497        1.6723998344
 C         -0.3010721230        4.1162213792       -0.0559042817
 C          0.8752705561        4.5827579873       -0.8590637873
 C         -0.4144116270        4.2504412797       -1.5441547677
 H         -1.0047497740        5.0619306495       -1.9437713082
 H         -0.4711167026        3.3395577116       -2.1188663278
 H          1.7067314367        3.9025144242       -0.9750633443
 H          1.1680562739        5.6192126515       -0.7804178519
 H         -0.7961058302        4.8757244520        0.5413162755
 O          2.1763788547        2.2593173492        1.8723088502
