  62
        -98.93162101
 C          2.2555511993        0.7022881796        0.6120061248
 C          3.3314934944        0.9947535538       -0.2611948725
 C          4.5960748602        0.2874624862        0.0063044652
 C          4.6660252794       -0.5821295158        1.0292092329
 C          5.8525073694       -1.4374379438        1.3720850627
 C          5.9388524436       -2.6337261041        0.4027101836
 C          7.1695230357       -2.6226925722       -0.5044526724
 H          8.0426679297       -2.9228209660        0.0787275706
 H          7.0128847790       -3.3791838186       -1.2763194482
 C          7.4920817948       -1.2843068808       -1.1758630586
 H          8.0025733618       -0.6314409057       -0.4663626972
 H          8.2061205383       -1.4937561068       -1.9751858711
 C          6.2977200531       -0.5258064570       -1.7688332373
 H          6.6158881459       -0.0755914074       -2.7113033703
 H          5.4837545111       -1.2119338185       -2.0037122338
 C          5.7619015715        0.6165126313       -0.8854839737
 H          6.5769678528        1.0254715641       -0.2822384800
 H          5.3990736931        1.4183959684       -1.5349306303
 H          5.9428439475       -3.5639568644        0.9728423484
 H          5.0337763152       -2.6446481194       -0.2082943664
 H          6.7609585547       -0.8409366701        1.3262573407
 H          5.7147926415       -1.7868053818        2.3955337111
 O          3.6102944399       -0.8440091932        1.8433877548
 C          2.3943366034       -0.2114831698        1.6617006998
 O          1.5235555371       -0.5376507359        2.4945578814
 O          3.2675287223        1.8042215585       -1.2245765203
 C          0.8853905991        1.3510860002        0.5029165737
 C          0.0197718685        0.7048623010       -0.5527303148
 C          0.4005910106        0.6661770654       -1.8900712422
 C         -0.4371506806        0.1089417565       -2.8386265606
 C         -1.6750971515       -0.3950976912       -2.4803513481
 C         -2.0625565646       -0.3644234315       -1.1460756490
 C         -1.2093051354        0.1726082886       -0.1924118864
 H         -1.5195137551        0.1772643808        0.8427289584
 N         -3.3062299947       -0.8770767207       -0.7435521399
 S         -4.1211171398       -0.0803445944        0.5034392814
 O         -3.9903090221        1.3501964916        0.3438469252
 O         -3.6866809162       -0.6239718912        1.7660124194
 C         -5.7992152428       -0.5862474672        0.1745828936
 C         -6.6184595838        0.2402432248       -0.5713378692
 C         -7.9125513341       -0.1715837196       -0.8484160004
 C         -8.3619322603       -1.3971693544       -0.3801404352
 C         -7.5282196090       -2.2154309871        0.3677897837
 C         -6.2333461272       -1.8095354296        0.6492978199
 H         -5.5527146163       -2.4061952906        1.2342296980
 H         -7.8821291880       -3.1659340759        0.7331243686
 H         -9.3695255473       -1.7152758244       -0.5964281009
 H         -8.5640983616        0.4637712866       -1.4264036871
 H         -6.2286474791        1.1882036498       -0.9058326713
 H         -3.9172085747       -1.0866854457       -1.5211404450
 H         -2.3344612104       -0.8137560016       -3.2256153959
 H         -0.1292564673        0.0816666182       -3.8730820162
 H          1.3563103904        1.0778856218       -2.1750957915
 H          0.3986503476        1.1758793508        1.4727787587
 C          0.9422395626        2.8496203644        0.2653296993
 C         -0.2902386734        3.6627081034        0.5186406188
 C          0.8901812094        3.7831973079        1.4346114775
 H          1.4803013578        4.6866868094        1.3995128736
 H          0.8170005392        3.3465998824        2.4205405376
 H         -0.5092595929        4.4839512235       -0.1465877037
 H         -1.1693944109        3.1450040608        0.8758245829
 H          1.5676187538        3.1279121170       -0.5724242385
