  62
        -98.94188838
 C         -2.7729416328       -0.2531242001       -0.2510344228
 C         -2.0268909914        0.5649088991       -1.1342040797
 C         -2.0042877802        2.0009976871       -0.8203426119
 C         -2.6898510305        2.4629956897        0.2394364640
 C         -2.7138942677        3.8924157260        0.6951359017
 C         -1.6226706325        4.1696552513        1.7381372875
 C         -0.2315961235        3.6772797653        1.3368062515
 H          0.4591515636        3.9812281325        2.1269907427
 H         -0.2191305693        2.5841741015        1.3155257705
 C          0.2719683862        4.2094295744       -0.0118461977
 H         -0.2930080277        5.0981381182       -0.2971482783
 H          1.3159138134        4.5084149616        0.1031576258
 C          0.2233450141        3.1838270776       -1.1461097681
 H          0.6642216367        2.2463990505       -0.7951423654
 H          0.8357280791        3.5570345701       -1.9718411789
 C         -1.1727596719        2.8832654606       -1.7079365647
 H         -1.6935187416        3.8181809609       -1.9246990274
 H         -1.0470166646        2.3337253726       -2.6453168959
 H         -1.5884510933        5.2456768583        1.9202667213
 H         -1.9015114735        3.6755490023        2.6718540412
 H         -2.5810582767        4.5440864564       -0.1662538708
 H         -3.6888195965        4.0917711552        1.1436562055
 O         -3.4259932527        1.6561954488        1.0456625737
 C         -3.4576092796        0.2889642643        0.8418643459
 O         -4.1372929209       -0.3347656528        1.6823383486
 H         -0.2820503189       -1.4187477098       -1.1658109689
 C         -0.3350437281       -2.0216487462       -0.2714464434
 C         -1.5753333581       -2.3379369824        0.2641341936
 C         -1.6182040005       -3.1011628097        1.4246992715
 C         -0.4493732682       -3.5177282500        2.0396903484
 C          0.7851906768       -3.1627990865        1.5244526521
 C          0.8339885552       -2.4054306827        0.3630582216
 N          2.0912745465       -1.9563775804       -0.1296954085
 S          2.5978469939       -0.6208317873        0.7901718807
 O          2.9229798580       -1.0970091987        2.1112365173
 O          1.6139449561        0.4376644270        0.7211312523
 C          4.0865426105       -0.1432702028       -0.0658472371
 C          5.2383711396       -0.8736344628        0.1556042463
 C          6.3909012511       -0.5295211535       -0.5321296146
 C          6.3717505646        0.5316973466       -1.4252680770
 C          5.2077853019        1.2549940882       -1.6365593854
 C          4.0507702212        0.9148550090       -0.9529811508
 H          3.1249077033        1.4531175823       -1.0825306975
 H          5.1949235035        2.0806921250       -2.3297421079
 H          7.2700816618        0.7985396939       -1.9591847929
 H          7.2985797816       -1.0880896077       -0.3700868732
 H          5.2059925325       -1.6837710140        0.8648633900
 H          1.9881722758       -1.6304851822       -1.0846358301
 H          1.7024606785       -3.4352399029        2.0201332758
 H         -0.5008228314       -4.1060586384        2.9434601253
 H         -2.5766159529       -3.3411660260        1.8623806480
 C         -2.8304513946       -1.7723573344       -0.3570534430
 H         -3.6830328632       -2.0841762828        0.2608259615
 C         -3.0465024257       -2.2826066879       -1.7671863146
 C         -3.5888229629       -3.6657627749       -1.9599306767
 C         -4.4445780676       -2.4749111867       -2.2690575406
 H         -4.6562586911       -2.2425452637       -3.3018234158
 H         -5.2543781720       -2.2386779424       -1.5939156731
 H         -3.8205910945       -4.2395293946       -1.0753272673
 H         -3.2125712449       -4.2558249571       -2.7813061904
 H         -2.3110772334       -1.9247356898       -2.4748175654
 O         -1.3999791306        0.1449745594       -2.1451785621
