  62
        -98.93861574
 C         -1.8982471922       -1.6910088108        0.0754389896
 C         -1.7467694139       -0.5696340148       -0.7748378321
 C         -2.8618211303        0.3925609773       -0.7733046348
 C         -3.9325479430        0.1586663918        0.0070211905
 C         -5.1051407932        1.0818990268        0.1786028821
 C         -4.7229297013        2.2474452744        1.1134396933
 C         -4.7173536728        3.6198654436        0.4398283527
 H         -5.7483616932        3.9551192492        0.3084932824
 H         -4.2293882745        4.3175516695        1.1236279320
 C         -4.0248420315        3.6906077321       -0.9244515530
 H         -4.6931396798        3.3050430558       -1.6959071039
 H         -3.8714553495        4.7485609080       -1.1477615568
 C         -2.6774894395        2.9646015110       -1.0320269680
 H         -2.2122433069        2.8718113319       -0.0504672799
 H         -2.0162572189        3.5788313031       -1.6471117268
 C         -2.7481682619        1.5757801840       -1.6951976692
 H         -3.5721111431        1.5569250593       -2.4141087682
 H         -1.8241741281        1.4038059540       -2.2556705317
 H         -5.4176542177        2.2819684143        1.9540075307
 H         -3.7352359724        2.0411583774        1.5311069981
 H         -5.4247921564        1.4566552555       -0.7912149814
 H         -5.9176571187        0.4980519692        0.6115646361
 O         -4.0388732606       -0.9318023188        0.8100211130
 C         -3.0304158357       -1.8776495229        0.8693594610
 O         -3.2547814497       -2.8224860103        1.6522937138
 H          1.5890766982       -2.2679902975       -1.1247419705
 C          1.5784110854       -1.9122289180       -0.1069449675
 C          0.4529470203       -2.0935685553        0.6787455983
 C          0.4650769712       -1.6057917386        1.9834553119
 C          1.5784805691       -0.9622197056        2.4882188480
 C          2.7001473495       -0.7762211621        1.6979789548
 C          2.6914063334       -1.2463350670        0.3921486907
 N          3.8112437925       -1.0317279200       -0.4275795812
 S          4.5554000229        0.4644147943       -0.3600296423
 O          5.1462006191        0.6520247214       -1.6672781864
 O          5.4797245606        0.4926234039        0.7475561141
 C          3.2589369318        1.6607140296       -0.0820016610
 C          3.4290028478        2.6192810506        0.8970443221
 C          2.4261158378        3.5519647515        1.1067436890
 C          1.2712685224        3.5069059391        0.3410218444
 C          1.1162667339        2.5382307632       -0.6378174901
 C          2.1181213125        1.6077028683       -0.8573266936
 H          1.9971789242        0.8443866588       -1.6086493038
 H          0.2145472608        2.4827841808       -1.2250249163
 H          0.4863075544        4.2280911486        0.5072694211
 H          2.5456009090        4.3059434285        1.8681868539
 H          4.3374135588        2.6103396035        1.4775887095
 H          3.6847790145       -1.3339358095       -1.3824822339
 H          3.5778442549       -0.2757139122        2.0740212277
 H          1.5746066094       -0.5963579415        3.5037205613
 H         -0.4179731855       -1.7368449678        2.5942986116
 C         -0.8065727720       -2.7450433233        0.1637696945
 H         -1.1471785955       -3.4698075800        0.9158630982
 C         -0.6409049798       -3.4611122102       -1.1598342385
 C          0.0342845511       -4.7981686258       -1.2014509863
 C         -1.4445530589       -4.6975508444       -1.4223168409
 H         -1.8304159090       -4.8599714858       -2.4176293076
 H         -2.1055901889       -5.0376564213       -0.6384440485
 H          0.6636149624       -5.0350730559       -2.0460387350
 H          0.3804813483       -5.2107620873       -0.2658933802
 H         -0.4890213712       -2.7852794063       -1.9930973813
 O         -0.7400065826       -0.3787344055       -1.5053172382
