  62
        -98.94588672
 C         -1.6902234454       -1.2986048504        0.4222775567
 C         -1.2977207165       -0.2119547792       -0.3954915888
 C         -1.8909658017        1.0883613749       -0.0626042378
 C         -2.6943278463        1.2051086520        1.0086777001
 C         -3.3525145836        2.4691189853        1.4913958627
 C         -4.6628189127        2.8092958922        0.7673074186
 C         -4.5043265456        3.3084759583       -0.6695614187
 H         -3.7857573762        4.1283825865       -0.6892194604
 H         -5.4709615111        3.7138442539       -0.9750225222
 C         -4.0825599795        2.2269758941       -1.6739301357
 H         -4.7024670006        2.3008878281       -2.5701237182
 H         -4.2612647275        1.2398774453       -1.2413330806
 C         -2.6236944283        2.3140964252       -2.1221937238
 H         -2.4639857680        3.2446768215       -2.6709060340
 H         -2.4242599559        1.4823365770       -2.8022945615
 C         -1.6074807897        2.2435809817       -0.9745341026
 H         -1.6051151396        3.1770563074       -0.4118018039
 H         -0.6118739867        2.0951621800       -1.3997576890
 H         -5.1607271984        3.5895241143        1.3476832600
 H         -5.3060511869        1.9262113370        0.7783306162
 H         -2.6535276116        3.3013261926        1.3996236204
 H         -3.5718369327        2.3188000871        2.5509464993
 O         -2.9931695037        0.1511120593        1.8149828998
 C         -2.5009432834       -1.1151735529        1.5439437395
 O         -2.8481328759       -1.9854247569        2.3694381536
 O         -0.4954617057       -0.3102331990       -1.3601971864
 C         -1.1426158131       -2.6979904204        0.1962262980
 C          0.3428521788       -2.6163008378       -0.0602996067
 C          0.9834709782       -3.2119659773       -1.1388604317
 C          2.3504007837       -3.0704451809       -1.3081855362
 C          3.0998047767       -2.3142003555       -0.4261837506
 C          2.4666350248       -1.7143007689        0.6563953217
 C          1.1082998879       -1.8955528036        0.8491767668
 H          0.6307014598       -1.4228185567        1.6960760483
 N          3.1738347755       -0.9023692053        1.5702878390
 S          2.7731120461        0.7262138075        1.5903439789
 O          3.6406548765        1.3150312440        2.5889856964
 O          1.3572010056        0.8836551057        1.8016744607
 C          3.2539654180        1.3184087355       -0.0232970455
 C          2.4529305191        1.0423154401       -1.1132331150
 C          2.8781776042        1.4485923703       -2.3695494045
 C          4.0856419258        2.1134809079       -2.5150907615
 C          4.8785739018        2.3808512650       -1.4089899161
 C          4.4631690911        1.9756513799       -0.1512294083
 H          5.0435398764        2.1623196258        0.7380018946
 H          5.8169699386        2.8993560295       -1.5226238426
 H          4.4091808373        2.4248717183       -3.4958327408
 H          2.2566738740        1.2352482588       -3.2245343282
 H          1.5150370927        0.5243749256       -0.9803272839
 H          4.1787404980       -0.9884952439        1.4936275496
 H          4.1610397020       -2.1804828232       -0.5737866515
 H          2.8343082374       -3.5381519538       -2.1519636395
 H          0.4110673917       -3.7694712708       -1.8617646556
 H         -1.2875096418       -3.2182028449        1.1582209175
 C         -1.8984424882       -3.5009548499       -0.8526528640
 C         -3.3283596177       -3.1911895768       -1.1789769405
 C         -2.2550333077       -2.9247843375       -2.1888039479
 H         -2.1995350070       -3.5665015904       -3.0558836764
 H         -1.9696692226       -1.9028531913       -2.3799869483
 H         -4.0048616181       -4.0158044053       -1.3471282008
 H         -3.7847182120       -2.3492325960       -0.6782203759
 H         -1.6336577494       -4.5534425242       -0.8276932987
