  62
        -98.94024238
 C         -2.4476378597       -0.9302054134       -0.0201655995
 C         -2.6407554376        0.4465042481        0.2474118973
 C         -4.0089477038        0.8356098108        0.6127598361
 C         -4.9710533002       -0.1008301232        0.7011633126
 C         -6.4057668661        0.1367086345        1.0878637565
 C         -7.2989426843        0.5916838730       -0.0744233673
 C         -7.0709617624        2.0282650746       -0.5461622053
 H         -7.9014511673        2.2838356563       -1.2072104094
 H         -7.1167370902        2.7021904929        0.3097973991
 C         -5.7535162506        2.2444500389       -1.3039437028
 H         -5.9434504788        2.8325572833       -2.2046910530
 H         -5.3574079957        1.2798996294       -1.6300124683
 C         -4.6750017320        2.9761647545       -0.5048098257
 H         -5.0070726390        3.9936633761       -0.2868614707
 H         -3.7752857733        3.0405062874       -1.1222445103
 C         -4.2942483352        2.2931071061        0.8152941832
 H         -3.3805458749        2.7591909160        1.1922759754
 H         -5.0865679320        2.4282048307        1.5511778984
 H         -7.1571499695       -0.0940940780       -0.9128477782
 H         -8.3358220379        0.5012287916        0.2573330606
 H         -6.7874909671       -0.8152715136        1.4628790159
 H         -6.4512345583        0.8710740872        1.8924597781
 O         -4.7358142556       -1.4190546493        0.4619297718
 C         -3.4800026629       -1.8622086569        0.0805544078
 O         -3.4087671021       -3.0911754200       -0.1256884674
 O         -1.7228307173        1.3055571005        0.1892651126
 C         -1.0770084440       -1.4341280421       -0.4318098018
 C         -0.0505892680       -1.0861529880        0.6191025308
 C         -0.3275265930       -1.3746304789        1.9534820924
 C          0.5906355501       -1.0860302913        2.9438045882
 C          1.8119749960       -0.5183767151        2.6250299931
 C          2.0990012184       -0.2279132133        1.2971763913
 C          1.1707719656       -0.5131168286        0.3046573175
 H          1.4228492804       -0.2783575435       -0.7156371188
 N          3.3188839498        0.3710045866        0.9437142681
 S          4.0353242966       -0.0551241470       -0.5238538998
 O          3.4445808170        0.7237922149       -1.5825328189
 O          4.0042429202       -1.4906996225       -0.6922932892
 C          5.7059418118        0.4982441790       -0.2330834479
 C          6.6674315443       -0.4147035820        0.1569745810
 C          7.9546381347        0.0337919863        0.4086773582
 C          8.2560331396        1.3802032372        0.2696655904
 C          7.2804030303        2.2846714362       -0.1231151939
 C          5.9918612647        1.8429034614       -0.3775858923
 H          5.2034723560        2.5064717500       -0.6928998520
 H          7.5191439896        3.3302597460       -0.2327561643
 H          9.2582948532        1.7267851898        0.4661821478
 H          8.7161167912       -0.6670067248        0.7108620137
 H          6.3889125986       -1.4526368315        0.2440255439
 H          3.9897399698        0.3732038753        1.6998172121
 H          2.5312890676       -0.2949659509        3.3982773326
 H          0.3579946371       -1.3122826940        3.9736902008
 H         -1.2788983309       -1.8264561574        2.2018377117
 H         -1.1545053638       -2.5310513138       -0.4776646887
 C         -0.7244000289       -0.9157530312       -1.8104567860
 C          0.2092715883       -1.6882685180       -2.6913351640
 C         -1.2521043612       -1.6281902307       -3.0177776012
 H         -1.5677349871       -1.0409246691       -3.8670157134
 H         -1.8507439982       -2.5116941762       -2.8487318044
 H          0.9041819851       -1.1398374177       -3.3102387345
 H          0.6094948761       -2.6139495973       -2.3050491080
 H         -0.6781663949        0.1672429992       -1.8485408698
