  62
        -98.93914164
 C         -1.2294972257       -1.0249174349        0.5787604966
 C         -1.9543241530       -0.8744154986       -0.6267362449
 C         -2.7732462775        0.3462804775       -0.7444260452
 C         -2.7635680773        1.2574878828        0.2453524188
 C         -3.4793127499        2.5868221323        0.3531264182
 C         -4.7753651994        2.8376070691       -0.4177813886
 C         -5.9288007343        1.8932020190       -0.0888362558
 H         -6.2197738101        2.0375602289        0.9546113040
 H         -6.7794764637        2.1774075868       -0.7128094653
 C         -5.6438400357        0.4063554590       -0.2937051457
 H         -4.9458279076        0.0559307811        0.4694391408
 H         -6.5808628307       -0.1361365601       -0.1409805099
 C         -5.1038038107        0.0250160641       -1.6724486185
 H         -5.7504338145        0.4392336385       -2.4481178822
 H         -5.1482534248       -1.0644847744       -1.7475522619
 C         -3.6484617113        0.4470615737       -1.9590358449
 H         -3.2347589436       -0.2436098892       -2.6991814736
 H         -3.5987639261        1.4482736712       -2.3816906735
 H         -5.0947852950        3.8509707310       -0.1589277466
 H         -4.5887429532        2.8307097968       -1.4878512790
 H         -3.6655972419        2.7311491857        1.4213885365
 H         -2.7593046933        3.3556627600        0.0516299080
 O         -1.9806552085        1.1071945549        1.3522752737
 C         -1.2046499857       -0.0187301019        1.5463002929
 O         -0.5465924679       -0.0121558577        2.6062459242
 H          1.8277252081       -0.9833312601        1.5625868356
 C          1.9378700350       -1.4392857323        0.5866789557
 C          0.8798728051       -2.1725727653        0.0624093335
 C          1.0189218491       -2.7302857631       -1.2023848056
 C          2.1891612737       -2.5538245047       -1.9211282512
 C          3.2431852989       -1.8285154389       -1.3944180817
 C          3.1116272475       -1.2675750960       -0.1311721501
 N          4.1823523668       -0.5082774119        0.3995576024
 S          4.3951337827        0.9970803181       -0.3021020819
 O          4.6119439066        0.8209423553       -1.7143720057
 O          5.4587139330        1.6341788701        0.4391257020
 C          2.8569574154        1.8517765160       -0.0118143138
 C          1.7709343616        1.5700875153       -0.8164031017
 C          0.5584045728        2.1805660185       -0.5390731601
 C          0.4536883018        3.0528926995        0.5329751101
 C          1.5524861372        3.3222603444        1.3334622062
 C          2.7659213168        2.7119732242        1.0640407412
 H          3.6460603426        2.8920459340        1.6604756324
 H          1.4620162268        3.9977333645        2.1688499483
 H         -0.4933431140        3.5185801136        0.7547797222
 H         -0.3019350050        1.9596701715       -1.1526416296
 H          1.8849239114        0.8874388404       -1.6434277922
 H          4.1183713810       -0.3879260938        1.4015828446
 H          4.1542969044       -1.6692268576       -1.9474927680
 H          2.2817037175       -2.9880736405       -2.9050814198
 H          0.1982862401       -3.2793259638       -1.6335888695
 C         -0.3927598040       -2.2626187885        0.8673072745
 H         -0.1199480766       -2.1944403947        1.9290865129
 C         -1.1619230729       -3.5483590171        0.6496283796
 C         -0.6205082613       -4.8233482338        1.2203386147
 C         -1.8451020265       -4.1964513733        1.8144975357
 H         -2.8003022798       -4.6727513749        1.6515362181
 H         -1.7568915671       -3.7168895110        2.7787706466
 H         -0.7327790673       -5.7328316170        0.6505147710
 H          0.3006091859       -4.7670979587        1.7808340723
 H         -1.6673204165       -3.5957801637       -0.3057244850
 O         -1.9370695710       -1.7067782647       -1.5695364227
