  62
        -98.93416375
 C          2.5803451298        1.3638298903        0.2396068202
 C          2.4635441595        0.2093294904       -0.5732032598
 C          3.6345082392       -0.6899644400       -0.6011879698
 C          4.7266000793       -0.3880709903        0.1196914402
 C          6.0390439191       -1.1271509107        0.1982346803
 C          5.9857699286       -2.6572798407        0.3047372902
 C          4.7786885284       -3.2128279804        1.0744513102
 H          5.1329157082       -3.9175163505        1.8290693401
 H          4.2635939787       -2.4060135702        1.5987158802
 C          3.7846003082       -3.9509867101        0.1744686901
 H          4.3432887180       -4.5781375702       -0.5238672799
 H          3.1749119580       -4.6139673999        0.7930709701
 C          2.8237081585       -3.0608930597       -0.6134102599
 H          2.0995772686       -2.6010098895        0.0655754201
 H          2.2552142183       -3.6991332595       -1.2946843699
 C          3.4811970889       -1.9344175799       -1.4275342698
 H          4.4295074088       -2.2562781302       -1.8513959698
 H          2.8036213190       -1.6747625997       -2.2457399698
 H          6.0002442985       -3.0933673507       -0.6931480498
 H          6.9074288585       -2.9710061710        0.7977109502
 H          6.6376347292       -0.8501414009       -0.6744474097
 H          6.5423819592       -0.7166990609        1.0768880303
 O          4.7905406996        0.7269558696        0.9006979703
 C          3.7296922099        1.6088173999        0.9961367603
 O          3.9285394902        2.5600169599        1.7777592403
 H         -0.6235104800        1.8064972313       -1.2956325298
 C         -0.7978978001        1.4466458314       -0.2937417698
 C          0.1596411199        1.6548632110        0.6847689502
 C         -0.0659829103        1.1445208211        1.9596403202
 C         -1.2269914005        0.4514881514        2.2457364901
 C         -2.1831332305        0.2465926917        1.2660130801
 C         -1.9561909103        0.7317235717       -0.0145421399
 N         -2.9133316204        0.5327284320       -1.0201803099
 S         -3.7698247208       -0.9035439777       -1.1039371800
 O         -3.0110534512       -2.0302062780       -0.6135575700
 O         -4.2260128208       -0.9834249075       -2.4748615700
 C         -5.1756554508       -0.6072085273       -0.0489464200
 C         -5.5262064111       -1.5372338472        0.9098625199
 C         -6.6325075010       -1.2935046069        1.7090502299
 C         -7.3663422706       -0.1303365367        1.5353161599
 C         -7.0033798003        0.7926512132        0.5657944100
 C         -5.8994485704        0.5540849629       -0.2368274700
 H         -5.5869825702        1.2448959728       -1.0018558200
 H         -7.5763413601        1.6962944634        0.4335404800
 H         -8.2261846206        0.0577320936        2.1587147399
 H         -6.9162622312       -2.0107474969        2.4624326399
 H         -4.9233257013       -2.4256187974        1.0135361899
 H         -2.6116775003        0.8332339920       -1.9354502899
 H         -3.0836458307       -0.3055205180        1.4793766000
 H         -1.3904363606        0.0636821514        3.2399174101
 H          0.6873973798        1.2911084508        2.7219394802
 C          1.4541201101        2.3730682307        0.3981691502
 H          1.7232252703        2.9536660005        1.2950483003
 C          1.3367529005        3.3735545307       -0.7424966297
 C          2.5677694507        3.9532479004       -1.3711629097
 C          1.6783480704        3.0449857007       -2.1633426997
 H          1.0725351906        3.4790926509       -2.9458798897
 H          2.0239970701        2.0477105506       -2.3846527998
 H          2.5782201710        5.0055539204       -1.6116416297
 H          3.5215583805        3.5712575501       -1.0367663197
 H          0.5065356207        4.0566556010       -0.5894752597
 O          1.4511809894       -0.0697594493       -1.2662828398
