  62
        -98.93561095
 C          2.3774005312        0.8560824283       -0.3949672590
 C          3.1667355706        0.0978696877        0.5058269009
 C          3.3923858800       -1.3187909423        0.1769102506
 C          2.8318230899       -1.8199418118       -0.9370314697
 C          2.8557671592       -3.2449875917       -1.4173651800
 C          1.6260650487       -4.0092479111       -0.8964507004
 C          1.8115597382       -4.6686356716        0.4694250494
 H          0.8427802779       -5.0776433012        0.7648856092
 H          2.5075916878       -5.5047423719        0.3728048993
 C          2.3102110585       -3.7386075821        1.5782622998
 H          1.7830291990       -2.7839799419        1.5174042999
 H          2.0497838981       -4.1904453723        2.5374515296
 C          3.8275128786       -3.5050033429        1.5343888201
 H          4.2802956983       -4.2270550430        0.8552629200
 H          4.2519129683       -3.6988640734        2.5216455201
 C          4.2574991694       -2.0851149330        1.1408965605
 H          4.2957855796       -1.4558068533        2.0355535907
 H          5.2758424294       -2.1196510335        0.7392155007
 H          0.7863848291       -3.3087038807       -0.8558078604
 H          1.3665766684       -4.7883023408       -1.6165405607
 H          2.8067720094       -3.2062455313       -2.5075382200
 H          3.7787587889       -3.7367159222       -1.1242926000
 O          2.0893222804       -1.0580909412       -1.7846787196
 C          1.8328628611        0.2826010789       -1.5444292593
 O          1.1421962715        0.8195754095       -2.4331183492
 O          3.6683622707        0.5922979072        1.5527965611
 C          2.1169474119        2.3003036784       -0.0019801487
 C          0.8500280318        2.3876785688        0.8169671911
 C          0.8659425218        2.9379588585        2.0931905713
 C         -0.2891182183        2.9872509189        2.8531114411
 C         -1.4746457384        2.4749258696        2.3601436108
 C         -1.5023500385        1.9280178400        1.0811572706
 C         -0.3480955784        1.9007641896        0.3128317808
 H         -0.3865847385        1.4696557998       -0.6763722493
 N         -2.6956596887        1.4152485907        0.5493102203
 S         -2.6143741092        0.0600425209       -0.4582695101
 O         -1.6345111798       -0.8763875797        0.0458776999
 O         -2.4609862488        0.5031643012       -1.8199799699
 C         -4.2637703096       -0.5836981183       -0.2340347505
 C         -5.3003775092        0.0084884424       -0.9311302205
 C         -6.5917023795       -0.4536196569       -0.7333036308
 C         -6.8244051201       -1.4941054470        0.1540852189
 C         -5.7742835306       -2.0802312978        0.8444398889
 C         -4.4801855903       -1.6212572684        0.6524613092
 H         -3.6316450706       -2.0490871190        1.1620628192
 H         -5.9575329311       -2.8910781578        1.5308367186
 H         -7.8302299503       -1.8521867466        0.3064145186
 H         -7.4098277191       -0.0018621764       -1.2705891508
 H         -5.0675867187        0.8069798225       -1.6162400603
 H         -3.4282309989        1.3235518509        1.2401120701
 H         -2.3735874285        2.4957129699        2.9572754506
 H         -0.2624146582        3.4135905786        3.8443392412
 H          1.7973965220        3.3077841779        2.4954261815
 H          2.9549513519        2.5786462378        0.6525590815
 C          2.0699033825        3.2765775087       -1.1592365085
 C          2.3664152933        4.7223871985       -0.8995610380
 C          3.3441993529        3.8816119382       -1.6631467381
 H          3.4501319332        4.0415087784       -2.7254485280
 H          4.2616998627        3.5922785276       -1.1716162680
 H          1.7985611837        5.4664095389       -1.4364684879
 H          2.6244653632        5.0073534081        0.1090532521
 H          1.3077066025        3.0404365293       -1.8903555686
