  62
        -98.94367167
 C         -2.6220122379       -0.1634204221       -0.2346008886
 C         -2.1731510725       -0.9561156005        0.8510134525
 C         -1.7199767081       -2.3150868825        0.5101847987
 C         -1.7180187394       -2.7154816755       -0.7728654168
 C         -1.2421727495       -4.0537280147       -1.2590684749
 C          0.2443366422       -4.0225498473       -1.6370911413
 C          1.1484197729       -3.4140639273       -0.5642407232
 H          0.9394271804       -2.3446402551       -0.4775757920
 H          2.1776507153       -3.5034748612       -0.9208475161
 C          1.0294098647       -4.0700874570        0.8181873417
 H          2.0336740548       -4.2092292439        1.2240829076
 H          0.5758083614       -5.0581030555        0.7227102233
 C          0.2487072755       -3.2472099774        1.8449744517
 H          0.6322208489       -2.2235403952        1.8585586605
 H          0.4296222727       -3.6776954394        2.8341890782
 C         -1.2712203729       -3.1950644130        1.6429309698
 H         -1.7099468996       -2.7639227885        2.5478023297
 H         -1.6619789001       -4.2080807927        1.5195090762
 H          0.3576037342       -3.4318942712       -2.5491165691
 H          0.5657822546       -5.0446541306       -1.8482123179
 H         -1.4141491894       -4.7962808842       -0.4819923428
 H         -1.8254365550       -4.3222254180       -2.1419241997
 O         -2.1371450000       -1.9223897199       -1.7922685141
 C         -2.5773266100       -0.6344569601       -1.5494347024
 O         -2.9233415910       -0.0122651569       -2.5760600564
 H         -0.5192970134        0.9498283807        0.7626384884
 C         -0.6615101922        1.8800308965        0.2345929226
 C         -1.9127719729        2.2247668550       -0.2500474403
 C         -2.0599046201        3.4454356012       -0.9000303528
 C         -0.9745785119        4.2843409625       -1.0771070096
 C          0.2843210081        3.9086658944       -0.6429390173
 C          0.4393664489        2.6939984413        0.0138167544
 N          1.6968513999        2.2526726398        0.4573161338
 S          2.0075101375        0.5959244986        0.2831022596
 O          1.3999514776        0.1080932963       -0.9339316888
 O          1.6449118864       -0.0712464478        1.5066679969
 C          3.7837205289        0.6073764744        0.1212032359
 C          4.5612858519        0.6111469952        1.2637357427
 C          5.9405227138        0.6554433530        1.1347321293
 C          6.5156916346        0.6961543245       -0.1267381753
 C          5.7223950081        0.6894072483       -1.2643511433
 C          4.3423756374        0.6461545457       -1.1423025555
 H          3.6849521290        0.6289387609       -1.9970180974
 H          6.1718228967        0.7167368360       -2.2438894563
 H          7.5892179996        0.7300129298       -0.2244180736
 H          6.5602966488        0.6570943536        2.0167146398
 H          4.0680707411        0.5686114641        2.2208466007
 H          2.4598850690        2.8189187656        0.1117766355
 H          1.1393302886        4.5450547842       -0.8137187975
 H         -1.1035081920        5.2285390618       -1.5839637303
 H         -3.0285309271        3.7251089486       -1.2860706409
 C         -3.0830414892        1.2786111776       -0.0976491263
 H         -3.7598526190        1.4594461396       -0.9457695865
 C         -3.8371420152        1.5747113094        1.1838379316
 C         -4.8828848455        2.6474331241        1.1946070081
 C         -5.2856177816        1.2069347814        1.2865037460
 H         -5.6517067003        0.8255040280        2.2274380859
 H         -5.7445529428        0.7491337651        0.4219955199
 H         -5.0834803743        3.1666968163        0.2699835904
 H         -4.9743133478        3.2641753072        2.0752428870
 H         -3.2311264158        1.4513669213        2.0718348882
 O         -2.1504268641       -0.5779694870        2.0527996327
