  62
        -98.94364306
 C         -1.7877606447       -0.5225015148        0.4246676937
 C         -2.9577369386       -0.5284325011        1.2203994595
 C         -4.2206504731       -0.7121807680        0.4968680095
 C         -4.2062327697       -0.8822832677       -0.8379704815
 C         -5.4099450955       -1.1013806909       -1.7140325815
 C         -6.1188458070        0.1932581143       -2.1351533435
 C         -6.9105632264        0.8913356253       -1.0285998720
 H         -7.5267157507        1.6547028839       -1.5079593698
 H         -7.5862633359        0.1754987256       -0.5594771106
 C         -6.0418015145        1.5616279742        0.0449616865
 H         -5.0223581830        1.6760976077       -0.3311047097
 H         -6.4220843841        2.5655042078        0.2473728919
 C         -5.9966233636        0.8169668804        1.3793896036
 H         -6.9916299864        0.8114362802        1.8299153044
 H         -5.3262265883        1.3584353591        2.0520046157
 C         -5.4975328246       -0.6304277335        1.2777571376
 H         -6.2626003123       -1.2614347280        0.8261438491
 H         -5.2936360160       -0.9944427779        2.2877635533
 H         -6.8106955587       -0.0614281462       -2.9413029181
 H         -5.3747882742        0.8824837312       -2.5411699406
 H         -5.0511745973       -1.6052348582       -2.6140202751
 H         -6.1182774525       -1.7572637760       -1.2072349877
 O         -3.0568058250       -0.8929111423       -1.5639374469
 C         -1.8238406748       -0.6916857597       -0.9595741618
 O         -0.8595840270       -0.6924115948       -1.7470954912
 O         -2.9469847682       -0.3837092052        2.4727412613
 C         -0.4431009837       -0.3118616661        1.0949454858
 C          0.2376060701        0.9128498053        0.5356664890
 C         -0.4988760066        2.0852276335        0.3819097795
 C          0.0852461433        3.2250068279       -0.1336006515
 C          1.4220399099        3.2267434358       -0.4923333830
 C          2.1702209810        2.0680950774       -0.3303323036
 C          1.5768629066        0.9207705595        0.1800785154
 H          2.1751379446        0.0333743232        0.2989779179
 N          3.5213781217        2.0319615431       -0.7007252863
 S          4.6301247726        1.1789263399        0.2125146721
 O          4.3123230964        1.2267886514        1.6206020757
 O          5.9129065422        1.7347553211       -0.1641956134
 C          4.5352084671       -0.4962329753       -0.3828135059
 C          4.7309081515       -1.5300290739        0.5115746190
 C          4.7026669056       -2.8353436381        0.0460076069
 C          4.4804431249       -3.0825521082       -1.2997204226
 C          4.2883865046       -2.0329586912       -2.1852198864
 C          4.3197405636       -0.7255423386       -1.7270663081
 H          4.1684268812        0.1111111808       -2.3884040041
 H          4.1113022456       -2.2290044984       -3.2305252605
 H          4.4548233862       -4.0989274764       -1.6600467695
 H          4.8517368667       -3.6530350930        0.7334131389
 H          4.8888598997       -1.2922018412        1.5516601385
 H          3.8992725707        2.9050103365       -1.0378127279
 H          1.8807428005        4.1164485835       -0.8964310746
 H         -0.5018959388        4.1233087323       -0.2530765008
 H         -1.5420472479        2.0877731039        0.6680521027
 H         -0.6706682471       -0.1195838065        2.1546581854
 C          0.3945940179       -1.5696746499        0.9988951805
 C          1.4097727564       -1.8870990387        2.0545262522
 C          0.1423036011       -2.6817782936        1.9707442914
 H          0.1939920115       -3.6994890152        1.6146266529
 H         -0.6165320430       -2.5196772436        2.7223377045
 H          2.3316183231       -2.3604043656        1.7523161827
 H          1.5226218756       -1.1857950430        2.8677766187
 H          0.6203716592       -1.8409952541       -0.0265550525
