  62
        -98.94421765
 C         -2.0316355759       -1.3676085838        0.2712143896
 C         -2.0460208437       -0.3091883613        1.2163815314
 C         -2.9082888771        0.8358075283        0.9027244844
 C         -3.6240630195        0.8227048880       -0.2365461033
 C         -4.5249038985        1.9306992420       -0.6983943931
 C         -3.7738447426        2.9260676779       -1.5931097916
 C         -2.4420932887        3.3963242925       -1.0083813600
 H         -1.7555607670        2.5480136905       -0.9605937511
 H         -2.0199517256        4.1176764939       -1.7113827227
 C         -2.5512203791        4.0374348880        0.3823816913
 H         -3.5841534712        4.3292219777        0.5755335379
 H         -1.9521783172        4.9503002693        0.3985724413
 C         -2.0524207396        3.1549598964        1.5284874530
 H         -1.0569054545        2.7711735147        1.2914953804
 H         -1.9617049150        3.7781792784        2.4219813638
 C         -2.9512787006        1.9662033786        1.8920031967
 H         -2.5892665503        1.5512527183        2.8371880460
 H         -3.9771828259        2.3100149418        2.0399175372
 H         -3.5755833932        2.4459100642       -2.5540806955
 H         -4.4215990775        3.7865124294       -1.7708432249
 H         -4.9344129047        2.4430322078        0.1701202362
 H         -5.3450059148        1.4904811529       -1.2682396398
 O         -3.5707551223       -0.1972306309       -1.1276569531
 C         -2.7585604764       -1.3036428417       -0.9182941669
 O         -2.7923753387       -2.1280927989       -1.8510395033
 O         -1.3712756613       -0.3289965663        2.2814261221
 C         -1.1384044178       -2.5560836302        0.5908643461
 C          0.1870840359       -2.3640658331       -0.1055164014
 C          0.3682190543       -2.6615095387       -1.4515173571
 C          1.5897420012       -2.4288962963       -2.0583333798
 C          2.6506568831       -1.9003341307       -1.3432099662
 C          2.4743025341       -1.5846692252       -0.0020419066
 C          1.2479473073       -1.8193122146        0.6055015744
 H          1.1058327265       -1.5609367516        1.6463688838
 N          3.5437247303       -1.0585184019        0.7471080473
 S          4.3736216759        0.2836933884        0.1963590415
 O          5.0298098705       -0.0397079376       -1.0446994580
 O          5.2294155902        0.6720757893        1.2932358763
 C          3.1350582726        1.5367627783       -0.0764512281
 C          2.8589903573        2.4261924844        0.9430440125
 C          1.8824236765        3.3889035803        0.7478081594
 C          1.1944799564        3.4380346725       -0.4548996027
 C          1.4740425369        2.5294291170       -1.4639328920
 C          2.4546229340        1.5681046228       -1.2773644619
 H          2.7058353107        0.8536625863       -2.0441053443
 H          0.9317558253        2.5663948410       -2.3954466221
 H          0.4355593507        4.1885589099       -0.6071938955
 H          1.6587925385        4.0947558106        1.5316214442
 H          3.4238414872        2.3582856092        1.8589199578
 H          3.3252593423       -0.9436890554        1.7265732804
 H          3.6072562779       -1.7190673046       -1.8061394940
 H          1.7202132821       -2.6661727320       -3.1035320249
 H         -0.4597134896       -3.0511905915       -2.0223189655
 H         -0.9553838849       -2.4919538993        1.6721412655
 C         -1.7685113396       -3.9001938778        0.2947286076
 C         -1.1678274214       -5.1273590664        0.9101627249
 C         -2.4956910720       -4.6226902553        1.3872675647
 H         -3.3835077525       -5.1814005009        1.1318085427
 H         -2.5432345764       -4.1497064904        2.3574733818
 H         -1.1408146214       -6.0353384135        0.3277617504
 H         -0.3128344983       -4.9945786063        1.5561031510
 H         -2.1740081922       -3.9843264929       -0.7042744966
