  62
        -98.94861236
 C         -1.5216552923       -1.3703006797        0.1682638155
 C         -0.9185461229       -2.3305243112       -0.6763322194
 C          0.3991818287       -2.8161500764       -0.2514259882
 C          0.9596877882       -2.3319493323        0.8719587512
 C          2.2866894472       -2.7451261825        1.4483979640
 C          3.4914240603       -2.0308361306        0.8226473389
 C          3.8562926301       -2.4817117414       -0.5918166149
 H          4.8433953356       -2.0715694369       -0.8141374643
 H          3.9415500168       -3.5687758819       -0.6192882003
 C          2.8782262913       -2.0149802067       -1.6787151959
 H          2.2766594042       -1.1799039276       -1.3097113877
 H          3.4388233539       -1.6320602832       -2.5353170030
 C          1.9454324223       -3.1050413379       -2.2075888904
 H          1.2633085146       -2.6438234507       -2.9269154217
 H          2.5297488745       -3.8629344010       -2.7355002343
 C          1.1036427154       -3.8033819912       -1.1320910315
 H          1.7318898013       -4.4650577559       -0.5355391522
 H          0.3401926159       -4.4034863032       -1.6342337756
 H          3.2953436472       -0.9565286657        0.8181546184
 H          4.3509212776       -2.2138495387        1.4714519096
 H          2.2530205695       -2.4950520425        2.5107323485
 H          2.4084818211       -3.8242485068        1.3481344438
 O          0.3480002391       -1.4055239186        1.6563492241
 C         -0.8994143549       -0.8982519522        1.3237295401
 O         -1.3401722107       -0.0533587297        2.1250020452
 O         -1.4596090090       -2.7669725970       -1.7291616690
 C         -2.8618917382       -0.7731098070       -0.2177180127
 C         -2.7512030964        0.7305093618       -0.2952708116
 C         -3.7536157068        1.5919196184        0.1331743131
 C         -3.5711822866        2.9627791872        0.0695438709
 C         -2.3877656293        3.5019523754       -0.4003455874
 C         -1.3820123414        2.6475379423       -0.8424683635
 C         -1.5844635281        1.2772085290       -0.8137005547
 H         -0.8028411016        0.6237166350       -1.1705426703
 N         -0.1697843657        3.1669855085       -1.3202029431
 S          1.2919214522        2.3800900194       -1.3033435081
 O          2.2141599469        3.3471923260       -1.8605768367
 O          1.2028790194        1.1252813286       -2.0091685213
 C          1.7858914439        2.0637640894        0.3865311350
 C          0.9035688819        2.0727751205        1.4464058461
 C          1.3825881663        1.7892567912        2.7173684960
 C          2.7249667464        1.5100763541        2.9102376470
 C          3.6026626954        1.5132624623        1.8362594796
 C          3.1293840917        1.7891525929        0.5642469251
 H          3.7736223401        1.7984631544       -0.3007444627
 H          4.6482861304        1.2950420438        1.9842090391
 H          3.0882675353        1.2852194236        3.9006064312
 H          0.6880388105        1.7711845531        3.5415838554
 H         -0.1460898716        2.2659417320        1.2956963366
 H         -0.0542945996        4.1643201566       -1.2240196534
 H         -2.2366488286        4.5702269955       -0.4233850325
 H         -4.3557887644        3.6219133345        0.4085444582
 H         -4.6732400083        1.1906061342        0.5262596356
 H         -3.0812407117       -1.1607455688       -1.2242573530
 C         -3.9449183308       -1.2417066936        0.7331062678
 C         -5.3498525395       -1.4406266590        0.2502818707
 C         -4.4942485092       -2.6267442202        0.5756637816
 H         -4.7161156697       -3.1983043744        1.4643206312
 H         -4.1075933872       -3.2206698877       -0.2397698517
 H         -6.1636920796       -1.2005556677        0.9178996267
 H         -5.5558870365       -1.2372837241       -0.7898171560
 H         -3.7952487162       -0.8742899917        1.7422587360
