  62
        -98.94226783
 C          2.1425476811        1.0918132312        0.0971666211
 C          1.5276641282        0.2343803895       -0.8428432861
 C          2.0070646457       -1.1603989714       -0.8916211558
 C          2.9961499713       -1.5347453486       -0.0595108022
 C          3.6623314097       -2.8801020582        0.0742332951
 C          2.8028156831       -3.9084982047        0.8197664511
 C          1.3621838898       -4.0086776823        0.3272899502
 H          0.8495256626       -4.7457144055        0.9524069740
 H          0.8542839513       -3.0553942734        0.4860633347
 C          1.2050992321       -4.4412707269       -1.1295018771
 H          1.7369360302       -5.3830664594       -1.2837830361
 H          0.1403883910       -4.6297942481       -1.2894493673
 C          1.6659926745       -3.4322905428       -2.1869280363
 H          1.1950701749       -3.7158488179       -3.1324032169
 H          2.7398491938       -3.4839136272       -2.3495823206
 C          1.2538437189       -1.9927278412       -1.8994340965
 H          1.2843060322       -1.4197282579       -2.8334231563
 H          0.2056163627       -1.9759085755       -1.5770830737
 H          3.2875168092       -4.8837140156        0.7364388143
 H          2.7776683279       -3.6329799983        1.8773435738
 H          3.9441129723       -3.2589156222       -0.9038015030
 H          4.5794704497       -2.7150302037        0.6450236001
 O          3.5532439584       -0.6715936380        0.8418638852
 C          3.1272494345        0.6350435009        0.9682356929
 O          3.6937133302        1.2825843867        1.8752872559
 H          0.2884286581        0.9768607296        1.8712979936
 C         -0.3683489204        1.6332893505        1.3122276520
 C          0.1793805970        2.5458933067        0.4185421444
 C         -0.6822182357        3.3821140182       -0.2795994217
 C         -2.0534935204        3.2715770335       -0.1223323988
 C         -2.5938936864        2.3117712753        0.7142732405
 C         -1.7383662250        1.4922334800        1.4373181223
 N         -2.2974904392        0.4396029660        2.2231972702
 S         -2.2159812023       -1.0149372593        1.3593690496
 O         -2.8613817005       -2.0040601578        2.1980334899
 O         -0.8553674870       -1.3284276662        0.9797161722
 C         -3.2183407526       -0.6618332336       -0.0633444504
 C         -2.6300695851       -0.1632618598       -1.2088250163
 C         -3.4436679295        0.1548139252       -2.2859923672
 C         -4.8153623285       -0.0253029356       -2.1984969358
 C         -5.3882229891       -0.5260115651       -1.0385913829
 C         -4.5836401290       -0.8454379908        0.0426968558
 H         -4.9785989751       -1.2388602658        0.9649449855
 H         -6.4554148019       -0.6645436090       -0.9732557356
 H         -5.4412703753        0.2272448192       -3.0399400580
 H         -2.9942306159        0.5478174350       -3.1837204718
 H         -1.5598446579       -0.0222012065       -1.2490070251
 H         -1.8002893475        0.3016235686        3.0940948967
 H         -3.6595341806        2.1836408126        0.8123861840
 H         -2.7088965718        3.9226227545       -0.6796284851
 H         -0.2782415558        4.1089656711       -0.9652442654
 C          1.6758151996        2.5319142339        0.2282490290
 H          2.1534920062        2.9275752829        1.1367569099
 C          2.1391580293        3.3431586336       -0.9640157536
 C          2.4074137681        4.8108417874       -0.8229985264
 C          3.5476869071        3.8527566787       -0.9877503509
 H          4.0844456671        3.8417959975       -1.9243994461
 H          4.1661512477        3.6344005069       -0.1290355059
 H          2.1653934435        5.4614617988       -1.6496548712
 H          2.2580138948        5.2557573395        0.1491182427
 H          1.7214853071        2.9828179048       -1.8971446020
 O          0.6149514410        0.6155421956       -1.6222345173
