  62
        -98.93930073
 C         -0.7170780940       -1.3165286974        0.3052945505
 C         -1.5029888642       -0.5832830671        1.2256979287
 C         -2.4835183287        0.3691926289        0.6693549247
 C         -2.5508599911        0.5181812360       -0.6665681503
 C         -3.5324135451        1.3286567952       -1.4715442529
 C         -4.9276740698        0.6857074701       -1.5238007995
 C         -5.4559518673        0.1788947486       -0.1848064178
 H         -6.4075031417       -0.3252674255       -0.3730418680
 H         -4.7680751628       -0.5691156856        0.2134792434
 C         -5.6985696772        1.2566270566        0.8692756236
 H         -6.3981308698        1.9959848706        0.4732658702
 H         -6.1776707878        0.7717530838        1.7237036365
 C         -4.4520987439        1.9854563328        1.3775060773
 H         -4.1268195725        2.7467228287        0.6734919289
 H         -4.7327587994        2.5116801925        2.2945745713
 C         -3.2870199148        1.0693967563        1.7384019771
 H         -2.5563680973        1.6437571296        2.3219393142
 H         -3.6421939590        0.2873558764        2.4193631206
 H         -4.8832309502       -0.1659267432       -2.2070282354
 H         -5.6259094350        1.4145070616       -1.9389615542
 H         -3.5932615291        2.3434187379       -1.0903949756
 H         -3.1388024990        1.3736158092       -2.4887736796
 O         -1.7011554929       -0.1330167572       -1.5083182730
 C         -0.7553666498       -1.0395379489       -1.0618103791
 O         -0.0396513480       -1.5071274270       -1.9651929071
 H          1.8196955908       -0.2718546137        1.2033421588
 C          2.2793564637       -0.9968579687        0.5466661475
 C          1.6070277335       -2.1787536096        0.2602884728
 C          2.2192807897       -3.1117050296       -0.5656796092
 C          3.4697955843       -2.8553863550       -1.0994516890
 C          4.1292404306       -1.6712869638       -0.8273223748
 C          3.5263794921       -0.7337119871        0.0046948190
 N          4.1765341012        0.4686487472        0.3102578110
 S          3.3507611122        1.8105622725        0.8324916214
 O          4.2760694912        2.9017593489        0.6073286551
 O          2.9209397975        1.6348348895        2.1979054468
 C          1.9350981303        2.0336771661       -0.2306300935
 C          0.7663887238        2.5060371339        0.3308413633
 C         -0.3067585282        2.7990213263       -0.4940013396
 C         -0.1960009564        2.6057433643       -1.8618092993
 C          0.9763454801        2.1103192022       -2.4090619074
 C          2.0572349536        1.8283462244       -1.5898051039
 H          2.9812809309        1.4514342906       -1.9967363978
 H          1.0518396777        1.9429001208       -3.4713240982
 H         -1.0294694580        2.8390311090       -2.5048176700
 H         -1.2211493816        3.1756495048       -0.0644317937
 H          0.7180802993        2.6312133367        1.4014255179
 H          4.9918179543        0.6889007067       -0.2406223416
 H          5.1005889703       -1.4691526505       -1.2516675505
 H          3.9335905024       -3.5844398983       -1.7463316762
 H          1.7067684825       -4.0266488755       -0.8123132487
 C          0.2369326792       -2.3590408126        0.8591765394
 H          0.3065675467       -2.1226693768        1.9344936971
 C         -0.2810861999       -3.7864598930        0.7598949425
 C         -1.7495629827       -4.0776617690        0.8309201881
 C         -1.0026119758       -4.3018606749       -0.4478417341
 H         -0.8166768450       -5.3195908490       -0.7585823063
 H         -1.1626532920       -3.6179577914       -1.2663587614
 H         -2.0767411415       -4.9369702597        1.3968246735
 H         -2.4227574477       -3.2345942081        0.8892131596
 H          0.3715187971       -4.4869759284        1.2722755268
 O         -1.4101638384       -0.7289201226        2.4755216805
