  62
        -98.93755887
 C         -1.9884734821       -0.8669114379        0.4908482037
 C         -2.0924583550       -0.1813239961       -0.7412242153
 C         -2.3230277420        1.2714879053       -0.6623239845
 C         -2.3868301299        1.8593722139        0.5446573852
 C         -2.6477636836        3.3101879735        0.8428107558
 C         -4.1475344466        3.5592784723        1.0773851537
 C         -4.9576551445        3.8492090831       -0.1855930741
 H         -6.0106823106        3.8751235839        0.1035941759
 H         -4.6952047018        4.8411151643       -0.5590988142
 C         -4.7842111430        2.8372276829       -1.3210815309
 H         -4.7875201333        1.8242345129       -0.9147668146
 H         -5.6487433905        2.9244584829       -1.9818748824
 C         -3.5067015356        3.0646717574       -2.1429443657
 H         -3.0920219951        4.0412514880       -1.8938459067
 H         -3.7608305232        3.0971137689       -3.2043479928
 C         -2.4225000959        1.9884761888       -1.9811242740
 H         -2.5848585930        1.1926667449       -2.7151200396
 H         -1.4437106728        2.4252979970       -2.2075474924
 H         -4.5557758639        2.6814895096        1.5848680445
 H         -4.2591489247        4.4090008087        1.7539250457
 H         -2.1057651503        3.5385351947        1.7631400496
 H         -2.2615926297        3.9396763668        0.0466181980
 O         -2.2694685506        1.1621200130        1.7095470387
 C         -2.0551828950       -0.2032717176        1.7135271239
 O         -1.9491203134       -0.7072324897        2.8525098116
 H          0.4928279684       -0.8261541663        0.4513775232
 C          0.6334421357       -1.7341547851       -0.1174004712
 C         -0.4054008681       -2.6508106463       -0.2123468598
 C         -0.1943772395       -3.8180919639       -0.9357379365
 C          1.0238322819       -4.0482746421       -1.5517230033
 C          2.0497527237       -3.1260179626       -1.4657916838
 C          1.8458751885       -1.9502622066       -0.7499514233
 N          2.8474673196       -0.9673960760       -0.6953500159
 S          2.8216274788        0.2278369361        0.4866483530
 O          2.7703091672       -0.3636864571        1.8065291175
 O          1.7899243403        1.1838515680        0.1683309403
 C          4.4233637558        0.9605891464        0.2098997564
 C          4.5733457830        1.8403226452       -0.8457061694
 C          5.8209608477        2.3940915026       -1.0845396666
 C          6.8923527256        2.0608949686       -0.2688073590
 C          6.7263501058        1.1785977807        0.7880410279
 C          5.4811243331        0.6202072090        1.0315721199
 H          5.3013689930       -0.0634121034        1.8456938796
 H          7.5597978828        0.9240661918        1.4226664350
 H          7.8619848126        2.4942385626       -0.4563258025
 H          5.9525210379        3.0825464471       -1.9036379158
 H          3.7091822107        2.0758150700       -1.4450775422
 H          3.7770332405       -1.3226561972       -0.8685321530
 H          2.9950872428       -3.3037998485       -1.9546271310
 H          1.1756286262       -4.9604643902       -2.1085253250
 H         -0.9845984816       -4.5464409739       -1.0176800984
 C         -1.7020163214       -2.3557674610        0.5059459910
 H         -1.5696633050       -2.6281024379        1.5648086727
 C         -2.8800050307       -3.1283944921       -0.0539640646
 C         -3.2273268814       -4.4830374196        0.4842506304
 C         -4.0976072960       -3.3053981443        0.8011055463
 H         -5.0695265410       -3.2381140181        0.3360190308
 H         -4.0617772115       -2.8946451117        1.8001580488
 H         -3.6066230485       -5.2275627416       -0.1994038398
 H         -2.6103303577       -4.8805384131        1.2761349149
 H         -3.0320976388       -2.9392960706       -1.1103285304
 O         -2.0017234526       -0.7547982938       -1.8592569405
