  62
        -98.93353349
 C         -2.6723086780       -1.1037011974       -0.1475786877
 C         -2.3756438910       -0.0110107767       -0.9971003080
 C         -3.0380526024        1.2609422913       -0.6694691470
 C         -3.8530248032        1.3412782013        0.3964040915
 C         -4.6260462743        2.5495929565        0.8532292640
 C         -3.7838734909        3.7458044444        1.3376401498
 C         -3.5032507004        4.7992721738        0.2589423292
 H         -4.2779574330        4.7342390682       -0.5060239060
 H         -3.5874784845        5.7912145127        0.7073890070
 C         -2.1239060253        4.7258935578       -0.4030213280
 H         -2.1498484764        5.3522596123       -1.2974340213
 H         -1.3790351824        5.1499003588        0.2743903177
 C         -1.6390889906        3.3286972397       -0.7926915789
 H         -0.7614182373        3.4399417113       -1.4329642188
 H         -1.2949541156        2.7947968816        0.0974395712
 C         -2.6906309289        2.4573860501       -1.5072538593
 H         -3.5830584321        3.0388734046       -1.7328645725
 H         -2.2804182483        2.0755391396       -2.4441734467
 H         -4.3450782003        4.2230726842        2.1425698171
 H         -2.8499772646        3.3824371653        1.7669018232
 H         -5.2844521019        2.8729848001        0.0439090602
 H         -5.2536668234        2.1989632678        1.6749826549
 O         -4.1050608618        0.2707820177        1.1976167808
 C         -3.5225614656       -0.9589502167        0.9541245978
 O         -3.8417248061       -1.8435923136        1.7737873046
 O         -1.6036544774       -0.0645809240       -1.9929946126
 C         -2.0824727017       -2.4956319495       -0.3262265178
 C         -0.6878776900       -2.5570385850        0.2506005111
 C         -0.3902915171       -3.3946109552        1.3187996215
 C          0.8837590773       -3.4221750996        1.8593125135
 C          1.8845315360       -2.6131658734        1.3511477434
 C          1.5926191441       -1.7644741066        0.2919729381
 C          0.3197063654       -1.7498979557       -0.2580583289
 H          0.0985645445       -1.0828449530       -1.0785911547
 N          2.6023723652       -0.9185521850       -0.2282394078
 S          3.1136903999        0.3349802236        0.7857819832
 O          3.3486326194       -0.1964832041        2.1038203091
 O          2.1941820951        1.4512163279        0.6996958514
 C          4.6634112518        0.7623748508        0.0176710003
 C          5.7645462091       -0.0303895890        0.2770337221
 C          6.9668215512        0.2692832050       -0.3427999992
 C          7.0467463536        1.3497183647       -1.2089376780
 C          5.9327468294        2.1362236137       -1.4591817262
 C          4.7268394339        1.8408376609       -0.8425007881
 H          3.8374031245        2.4292817483       -1.0020209330
 H          5.9978359383        2.9767909442       -2.1312534545
 H          7.9834497301        1.5815322644       -1.6908221640
 H          7.8356587811       -0.3389765600       -0.1496426300
 H          5.6567838177       -0.8548000416        0.9620529601
 H          2.2941028418       -0.4909036264       -1.0933984954
 H          2.8730234678       -2.6113668803        1.7790723788
 H          1.0992517581       -4.0786806335        2.6887810229
 H         -1.1715643786       -4.0126307068        1.7373947316
 H         -2.7188421936       -3.1638095350        0.2693171201
 C         -2.1004939701       -2.9747428923       -1.7648334719
 C         -2.0402143891       -4.4459743498       -2.0392623704
 C         -3.3105648826       -3.6890338157       -2.2831143306
 H         -3.6187434423       -3.5066080560       -3.3015656033
 H         -4.1332038815       -3.8381421739       -1.5986287307
 H         -1.4731184819       -4.7870847238       -2.8915685357
 H         -2.0027781199       -5.1117881342       -1.1903593033
 H         -1.5853030035       -2.3117157793       -2.4467072579
