  62
        -98.94182894
 C         -0.8057397992       -1.3197985200        0.6010326705
 C         -1.2295230594       -0.5880998312       -0.5318024502
 C         -2.1923330595        0.5005711290       -0.2800847512
 C         -2.4989402894        0.8256495902        0.9872269285
 C         -3.4116252595        1.9174080106        1.4910576475
 C         -4.7264015296        2.1458024097        0.7358868874
 C         -5.3901629795        0.8668123291        0.2050568587
 H         -4.8950292893       -0.0110116504        0.6241939295
 H         -6.4301941194        0.8422686693        0.5357239288
 C         -5.3792050096        0.7763333376       -1.3225258112
 H         -6.1506060896        0.0692150372       -1.6367085704
 H         -5.6438731198        1.7526587872       -1.7339774522
 C         -4.0602080096        0.3125525371       -1.9390519709
 H         -3.8888866695       -0.7395139726       -1.6955919098
 H         -4.1561292197        0.3785780760       -3.0252657609
 C         -2.8147545497        1.1046157577       -1.5060690818
 H         -2.0631033097        1.0099319870       -2.2936556817
 H         -3.0510802498        2.1562027778       -1.3711874028
 H         -4.5605381297        2.8330833789       -0.0919830333
 H         -5.4031570096        2.6476226103        1.4297702169
 H         -3.6300114193        1.6481520216        2.5276628478
 H         -2.8466014096        2.8540897107        1.5210497765
 O         -1.9528773592        0.1761776513        2.0578270791
 C         -1.1470644091       -0.9368703887        1.8958782301
 O         -0.8018268590       -1.4852660376        2.9634968106
 H          1.7170359608       -0.6085577992        1.1164645495
 C          2.0949490908       -1.1573356100        0.2652392900
 C          1.3557575808       -2.2151980706       -0.2502138789
 C          1.8681191608       -2.9218329816       -1.3305748582
 C          3.0869348607       -2.5684161420       -1.8827450887
 C          3.8181078506       -1.5129293614       -1.3707547698
 C          3.3176519207       -0.8055149404       -0.2828335604
 N          4.0481012206        0.2528998602        0.2777594684
 S          3.2722957305        1.5635069408        0.9467321172
 O          4.2860278104        2.5985496809        0.9682443761
 O          2.7066182007        1.2238010120        2.2288551476
 C          1.9869801204        2.0470708295       -0.1911587132
 C          0.7891153904        2.5007797399        0.3200601565
 C         -0.1719434698        2.9861378389       -0.5510982839
 C          0.0726308401        2.9939694676       -1.9146647939
 C          1.2738327801        2.5184033972       -2.4150009636
 C          2.2463243102        2.0502156582       -1.5471630932
 H          3.1943556402        1.6917776980       -1.9128566829
 H          1.4577761200        2.5154971862       -3.4771072036
 H         -0.6782579800        3.3719868269       -2.5900271842
 H         -1.1059077398        3.3561833992       -0.1613015042
 H          0.6312327405        2.4607559310        1.3871269366
 H          4.8859317405        0.5159458598       -0.2194881119
 H          4.7704047006       -1.2405130618       -1.7991464201
 H          3.4719512207       -3.1221930628       -2.7252558281
 H          1.3133565909       -3.7483930921       -1.7421611173
 C          0.0520508709       -2.5589622701        0.4262561216
 H          0.2873328211       -2.9081091590        1.4430192819
 C         -0.7399264590       -3.6349847809       -0.2886217072
 C         -0.4483708488       -5.0825095506       -0.0348782958
 C         -1.7046424589       -4.4657687602        0.5008999837
 H         -2.6472602789       -4.7342582907        0.0478792640
 H         -1.7707605688       -4.2732821291        1.5623592835
 H         -0.5319443188       -5.7784383914       -0.8559100751
 H          0.3377258412       -5.3185114798        0.6664233443
 H         -1.0382442992       -3.3381502019       -1.2874873075
 O         -0.8390222095       -0.8366336523       -1.7007239300
