  62
        -98.94073340
 C         -2.5167507766       -0.2503884123       -0.4441605340
 C         -2.1690921250       -0.8775786124        0.7738359700
 C         -1.5492384007       -2.2134996867        0.6764098424
 C         -1.2855378740       -2.7192239145       -0.5404913030
 C         -0.5774785595       -4.0013476206       -0.8870197252
 C          0.9427424478       -3.7778355643       -0.9798529125
 C          1.7043865335       -4.0363637255        0.3178249435
 H          1.6391635026       -5.0981869029        0.5671125633
 H          2.7546924074       -3.8026526769        0.1286541427
 C          1.2283899982       -3.2111534085        1.5147267636
 H          1.0662172983       -2.1787007596        1.2001934920
 H          2.0305509622       -3.2047110708        2.2558853245
 C         -0.0458747894       -3.7638191608        2.1683785302
 H          0.1131276714       -3.8627153075        3.2448488967
 H         -0.2442864141       -4.7669963823        1.7918341803
 C         -1.2887901750       -2.8863414038        1.9979891322
 H         -2.1766905866       -3.4768732731        2.2540859120
 H         -1.2473612078       -2.0633923969        2.7191230510
 H          1.3476841188       -4.4372595513       -1.7509142772
 H          1.1168669640       -2.7468037210       -1.3036666798
 H         -0.8166621667       -4.7842426887       -0.1734029363
 H         -0.9498865265       -4.2989694577       -1.8696128813
 O         -1.6040957367       -2.0609136680       -1.6929381714
 C         -2.2178589432       -0.8254437300       -1.6771841006
 O         -2.4535203362       -0.3486199917       -2.8088377603
 O         -2.3717366386       -0.3507478368        1.9004110130
 C         -3.1004938378        1.1531251617       -0.4425316986
 C         -2.0786186018        2.0820675375        0.1692232518
 C         -2.3601438374        3.0116203017        1.1610829198
 C         -1.3411809957        3.7668853642        1.7177497099
 C         -0.0277245335        3.5935730779        1.3217905672
 C          0.2594806969        2.6796581780        0.3136583891
 C         -0.7680128390        1.9641373160       -0.2752830738
 H         -0.5337121418        1.2649969807       -1.0664699854
 N          1.5755107348        2.4531637928       -0.1273810803
 S          1.9535668413        0.8565316948       -0.5495972859
 O          1.6965992191        0.6821250005       -1.9590094452
 O          1.3000700109       -0.0666167537        0.3460968611
 C          3.7143477295        0.8430349235       -0.2658437644
 C          4.2140142216        0.2242262060        0.8639938401
 C          5.5820901308        0.2406594682        1.0875262035
 C          6.4213233473        0.8751192071        0.1842443424
 C          5.9047807826        1.4916100581       -0.9461333089
 C          4.5384493745        1.4770851118       -1.1768616880
 H          4.0917005827        1.9317921346       -2.0457156085
 H          6.5606272970        1.9811638580       -1.6477446998
 H          7.4852364669        0.8869018875        0.3606276826
 H          5.9859474707       -0.2410774055        1.9632915421
 H          3.5214934605       -0.2611582142        1.5331003966
 H          2.2715065904        2.8529726307        0.4876524009
 H          0.7682045719        4.1552283348        1.7866683991
 H         -1.5714570575        4.4825233674        2.4924909401
 H         -3.3723751354        3.1323564351        1.5107633215
 H         -3.2276792823        1.4289360467       -1.5002421705
 C         -4.4491520214        1.1887990184        0.2424064354
 C         -5.4609283325        2.2243656113       -0.1440498960
 C         -5.6664423705        0.7928500804       -0.5359897310
 H         -6.4353746821        0.2239353894       -0.0355057262
 H         -5.5236898857        0.5176250082       -1.5711587348
 H         -6.0947198027        2.6387094847        0.6252520520
 H         -5.1869890257        2.9256602179       -0.9177724023
 H         -4.3961374283        0.8812923101        1.2800681319
