  62
        -98.94075435
 C          2.0170496553        1.3378984460        0.3705665755
 C          2.4974637124        0.6339616827       -0.7616701825
 C          3.7021043477       -0.1840189350       -0.5431236244
 C          4.2599008888       -0.2338369174        0.6793267565
 C          5.4528157316       -1.0663834491        1.0479846749
 C          5.0270523182       -2.4500181058        1.5587392697
 C          4.0175083692       -3.1583965349        0.6550681348
 H          3.8139972082       -4.1359844586        1.0978149347
 H          3.0772595591       -2.6016727963        0.6628244565
 C          4.4831185196       -3.3414681402       -0.7962521089
 H          5.5658955572       -3.2247858306       -0.8551156276
 H          4.2492593668       -4.3602390617       -1.1124777339
 C          3.8165450301       -2.3996614939       -1.8010573154
 H          2.7304979573       -2.4443635330       -1.6825396384
 H          4.0488637966       -2.7579328705       -2.8075168861
 C          4.2494705038       -0.9298862155       -1.7273164808
 H          5.3391368261       -0.8651150721       -1.7551788006
 H          3.8510463155       -0.4239061497       -2.6116312879
 H          5.9196507538       -3.0691863955        1.6642889496
 H          4.5772068033       -2.3313665673        2.5473133685
 H          6.0990434484       -1.1712387008        0.1787830887
 H          6.0017382652       -0.5508384207        1.8379359710
 O          3.7572662417        0.4368277451        1.7474616160
 C          2.6175145987        1.2154498152        1.6259535053
 O          2.2367232688        1.7335512334        2.6950753908
 H         -0.2199658021       -0.1640227789        0.9424239457
 C         -0.7131249963        0.2266530534        0.0598574778
 C         -0.3218736496        1.4645240672       -0.4379376659
 C         -0.9645931025        1.9567515781       -1.5652029035
 C         -1.9519876620        1.2133728047       -2.1892638443
 C         -2.3234712421       -0.0261376031       -1.7038302050
 C         -1.6946155497       -0.5230293403       -0.5685868814
 N         -2.0709697581       -1.7778533977       -0.0602069190
 S         -3.7032669161       -2.1316427724        0.0347932175
 O         -3.8210210012       -3.0811592514        1.1195196567
 O         -4.1796181619       -2.5830104617       -1.2488436158
 C         -4.4937770286       -0.5904011765        0.4631337274
 C         -5.4230747352       -0.0308373982       -0.3896578457
 C         -6.0004649354        1.1820533739       -0.0491031569
 C         -5.6368078819        1.8128232947        1.1302668970
 C         -4.7040799281        1.2359251332        1.9788724231
 C         -4.1256075051        0.0225379099        1.6445260074
 H         -3.4013037329       -0.4541937965        2.2858207708
 H         -4.4223249153        1.7273983366        2.8963536720
 H         -6.0826210248        2.7592466174        1.3924842138
 H         -6.7278240452        1.6317838791       -0.7054852223
 H         -5.6742622416       -0.5540454216       -1.2978587109
 H         -1.5857032445       -2.0449684884        0.7829732624
 H         -3.0746313430       -0.6250838352       -2.1926719873
 H         -2.4339690465        1.6023049071       -3.0731013053
 H         -0.6734923823        2.9096816699       -1.9744644271
 C          0.7687578278        2.2017179792        0.3007793793
 H          0.4448061162        2.3116794662        1.3491934581
 C          1.0101422001        3.6098148769       -0.2224552113
 C          2.3459945516        4.2722489720       -0.0690838402
 C          1.8530494961        3.8860514154       -1.4296434453
 H          1.5421438916        4.6725657349       -2.1018235287
 H          2.3081416445        3.0433514413       -1.9247829224
 H          3.1455067127        3.6933426632        0.3705860362
 H          2.3715355348        5.3191696299        0.1938315463
 H          0.1431254874        4.2469726403       -0.0781207520
 O          1.9609937952        0.6755384988       -1.8978359851
