  62
        -98.93608702
 C         -2.2228934211       -0.9130264097        0.5778545824
 C         -2.0147237869       -0.1551720461       -0.5981784867
 C         -2.2254351411        1.2995197953       -0.4862661958
 C         -2.5935620192        1.8177653329        0.6982882313
 C         -2.8984651917        3.2544759530        1.0230702426
 C         -4.3957676834        3.5559531437        0.8386537959
 C         -4.7972315169        3.9911465501       -0.5697603694
 H         -4.4005780793        4.9897959063       -0.7635122253
 H         -5.8870976274        4.0603630855       -0.5902245072
 C         -4.3433804707        3.0576355343       -1.6943880938
 H         -4.9719423117        3.2505987383       -2.5656785506
 H         -4.5074622460        2.0196630744       -1.3994668407
 C         -2.8722260303        3.2569879597       -2.0889966763
 H         -2.4966926447        4.1727782437       -1.6333034812
 H         -2.8008228816        3.3976550183       -3.1696353557
 C         -1.9452447620        2.0863706809       -1.7372456072
 H         -0.9089739942        2.4419411158       -1.6865961959
 H         -1.9732460716        1.3450825682       -2.5428915735
 H         -4.6791688368        4.3508575714        1.5312983893
 H         -4.9548371918        2.6603855453        1.1210982553
 H         -2.2834111583        3.9210360228        0.4258190770
 H         -2.6422787875        3.3923697756        2.0757114444
 O         -2.7915881693        1.0475478259        1.8055105974
 C         -2.5881053992       -0.3196824488        1.7838221613
 O         -2.7545135801       -0.8860942106        2.8841182836
 O         -1.6691923510       -0.6694678452       -1.6948087134
 C         -1.9517590272       -2.4074636618        0.5678406273
 C         -0.5352501109       -2.6402768789        0.0989005367
 C         -0.1795596675       -3.5940069869       -0.8454113282
 C          1.1306478944       -3.6981001391       -1.2818531869
 C          2.1120041017       -2.8567316539       -0.7903711469
 C          1.7702351286       -1.9204604445        0.1739176913
 C          0.4640143287       -1.8279163793        0.6205367194
 H          0.2055757828       -1.0786770954        1.3609770488
 N          2.7664338345       -1.0248235884        0.6547609248
 S          2.9248471683        0.3356778884       -0.3457388190
 O          1.9635097857        1.3467275289        0.0478205879
 O          2.8932538765       -0.0962797443       -1.7186192673
 C          4.5715291206        0.8744344928        0.0764892034
 C          5.6408989661        0.1893190996       -0.4671507307
 C          6.9271798501        0.5708759091       -0.1217927307
 C          7.1217692466        1.6249514548        0.7586571389
 C          6.0386205388        2.3033850587        1.2958408703
 C          4.7491663005        1.9250988846        0.9548302764
 H          3.8778841322        2.4286760292        1.3421617764
 H          6.1920662885        3.1241898613        1.9779329582
 H          8.1237722676        1.9210429922        1.0262937574
 H          7.7719054859        0.0468776816       -0.5390175577
 H          5.4397100292       -0.6164737447       -1.1532671124
 H          2.5235951080       -0.6753097159        1.5739502902
 H          3.1266417819       -2.9019180457       -1.1497277538
 H          1.3856501518       -4.4348675538       -2.0283557210
 H         -0.9345705782       -4.2432654188       -1.2581129777
 H         -2.0343556515       -2.7414920447        1.6127127132
 C         -2.9907212331       -3.1316788428       -0.2619853978
 C         -3.3634113049       -4.5469023837        0.0603284710
 C         -4.3230476922       -3.4340535949        0.3529694392
 H         -5.2070158455       -3.3375463709       -0.2592392673
 H         -4.4702603302       -3.1389860121        1.3818992526
 H         -3.5930419233       -5.2174777362       -0.7538403509
 H         -2.8653987455       -5.0174212787        0.8944706180
 H         -2.9753697250       -2.8263874276       -1.3020660396
