  62
        -98.93538362
 C         -1.4986193264        1.0292775998       -0.7056951037
 C         -2.4658362737        1.1368349171        0.3241084717
 C         -3.7610895299        0.4903361318        0.0536911452
 C         -3.9566578424       -0.1464277952       -1.1140287997
 C         -5.2055836732       -0.8890218533       -1.4900919847
 C         -5.1196513823       -2.3663562839       -1.0819782218
 C         -4.6712820547       -2.5842670437        0.3633355503
 H         -4.6783794265       -3.6611303242        0.5463876430
 H         -3.6365380093       -2.2492223488        0.4700150072
 C         -5.5437051098       -1.8808195497        1.4125173919
 H         -5.7410962923       -2.5797864263        2.2279896624
 H         -6.5061880784       -1.6139572127        0.9744945645
 C         -4.9074048733       -0.6367999496        2.0351371148
 H         -5.5026590675       -0.3510370804        2.9064086086
 H         -3.9021070244       -0.8781200069        2.3899189606
 C         -4.8138671270        0.5915228062        1.1215826711
 H         -5.7912184760        0.7976811938        0.6807982568
 H         -4.5280875931        1.4453807134        1.7425606752
 H         -4.4050112763       -2.8667990347       -1.7399302380
 H         -6.0989710097       -2.8239803706       -1.2339444287
 H         -6.0606038744       -0.4179608956       -1.0089871451
 H         -5.3293429739       -0.8275211121       -2.5726735059
 O         -3.0060517918       -0.2237402374       -2.0813078416
 C         -1.7602923564        0.3502500595       -1.8980443710
 O         -0.9811446515        0.1980406427       -2.8624808969
 H          1.0872237596       -0.6952503190       -0.4492899575
 C          1.1487909023       -0.1930499625        0.5053770271
 C          0.5648598202        1.0613249417        0.6589290638
 C          0.6075004560        1.6467955877        1.9188239065
 C          1.2304551900        1.0013268394        2.9736885525
 C          1.8417460904       -0.2266097057        2.8023229453
 C          1.7921950262       -0.8325821745        1.5528434279
 N          2.4036467715       -2.0759305205        1.3238730150
 S          3.2084516384       -2.3132276525       -0.1239952712
 O          2.2738681046       -2.6543788018       -1.1669001924
 O          4.2058082461       -3.3178681231        0.1797912000
 C          3.9963742674       -0.7493642108       -0.4687084353
 C          4.9627039285       -0.3062694394        0.4134897306
 C          5.5509720544        0.9291726305        0.1996117142
 C          5.1615903843        1.6996546399       -0.8855356656
 C          4.1969658685        1.2373564560       -1.7668755099
 C          3.6065318084        0.0006447316       -1.5591351972
 H          2.8482135334       -0.3882493106       -2.2210757700
 H          3.8928225093        1.8353122498       -2.6110625086
 H          5.6124265877        2.6658693798       -1.0475721616
 H          6.3056152928        1.2892220682        0.8800017822
 H          5.2455111085       -0.9353058423        1.2417390465
 H          2.9278005924       -2.4387788292        2.1066989649
 H          2.3372973773       -0.7191602766        3.6248275899
 H          1.2446636058        1.4705349233        3.9456892638
 H          0.1246556121        2.5891154237        2.1008822348
 C         -0.1010765003        1.6251708622       -0.5721603869
 H          0.4506998674        1.2079818339       -1.4292509046
 C         -0.1188826423        3.1286419676       -0.8156253123
 C         -0.6709810268        4.1633184163        0.1161367010
 C          0.8036790876        4.1036163182       -0.1485914059
 H          1.2412187635        4.8818696827       -0.7559552230
 H          1.4540892712        3.7341134041        0.6277373721
 H         -1.2357564511        4.9735523319       -0.3236536880
 H         -1.0662125876        3.8393109272        1.0642982940
 H         -0.3203916521        3.3108844414       -1.8691589680
 O         -2.2796806183        1.7358744787        1.4118713824
