  62
        -98.94475105
 C         -1.0247633550       -1.1708970646       -0.3375142711
 C         -2.0912614956       -1.3919961291        0.5738903554
 C         -2.9702709206       -0.2489719436        0.8462259051
 C         -2.7155209991        0.9278300101        0.2463265703
 C         -3.5468797564        2.1671213418        0.4033226903
 C         -4.6396821668        2.2442531124       -0.6716738750
 C         -5.4521560374        0.9577523655       -0.8181944929
 H         -6.2129824370        1.1375476785       -1.5809740470
 H         -4.8007583388        0.1659704390       -1.1952175625
 C         -6.1283434692        0.4830041765        0.4756525788
 H         -6.1759910323        1.3037444657        1.1921760102
 H         -7.1561301058        0.1927304159        0.2473364489
 C         -5.4605988485       -0.7258882129        1.1340936911
 H         -5.3256287434       -1.5181521933        0.3933333097
 H         -6.1361761749       -1.1101303921        1.9031280074
 C         -4.1076798976       -0.4585892223        1.8060504127
 H         -4.1978931491        0.3885968738        2.4888254026
 H         -3.8465055262       -1.3452843553        2.3909859531
 H         -5.3079377335        3.0720071432       -0.4274017539
 H         -4.1663209098        2.4602487508       -1.6320773412
 H         -3.9969502826        2.1722439787        1.3940378503
 H         -2.8919348902        3.0333047482        0.3049052393
 O         -1.6879561537        1.1057827507       -0.6184791706
 C         -0.8210537721        0.0707773960       -0.9414814184
 O          0.0564470400        0.4036966566       -1.7619432483
 O         -2.2980697348       -2.5026967644        1.1331954782
 C         -0.0996247594       -2.3508057728       -0.5835475244
 C          1.0965599107       -2.2824274262        0.3365157048
 C          1.3950179146       -3.3275328830        1.2022768073
 C          2.4875470758       -3.2478560079        2.0477677334
 C          3.2965290618       -2.1265444508        2.0477689135
 C          3.0014171619       -1.0715047745        1.1896782083
 C          1.9106913705       -1.1583079635        0.3377218343
 H          1.6971861125       -0.3448288606       -0.3363468514
 N          3.7652524652        0.0994232003        1.2155429656
 S          3.8492911486        1.1581230892       -0.0692337767
 O          3.9830139912        0.4653602674       -1.3294704037
 O          4.9559163368        2.0289176083        0.2764660373
 C          2.3501849709        2.1156098525       -0.0110744878
 C          1.9421790477        2.7457155691       -1.1684752135
 C          0.8209650908        3.5578353445       -1.1323111382
 C          0.1286409620        3.7226307809        0.0557543039
 C          0.5453903320        3.0761282220        1.2085109901
 C          1.6705215946        2.2680685790        1.1802428250
 H          2.0141201286        1.7483209713        2.0597942036
 H         -0.0050652750        3.1941979996        2.1286631805
 H         -0.7447183681        4.3558217834        0.0805052648
 H          0.4857891600        4.0471560692       -2.0327676448
 H          2.4962817600        2.5739565600       -2.0774237357
 H          4.6072177161        0.0770620199        1.7699266781
 H          4.1457778985       -2.0599474829        2.7103424803
 H          2.7109319447       -4.0660152446        2.7154357117
 H          0.7569380666       -4.1985762985        1.2196541766
 H         -0.6834477189       -3.2399627987       -0.3078055179
 C          0.3539644267       -2.5038087412       -2.0214028872
 C          0.7399607525       -3.8628504360       -2.5205533796
 C         -0.5268818093       -3.2200135512       -2.9984862223
 H         -0.5736976539       -2.8539043757       -4.0130099118
 H         -1.4651725038       -3.6102328694       -2.6314055192
 H          1.5693707399       -3.9402864592       -3.2067739758
 H          0.6582265263       -4.6922551461       -1.8343512998
 H          0.9187360019       -1.6560499038       -2.3878099652
