  62
        -98.93365451
 C          2.0903352334        0.7133688536        0.7388290992
 C          2.8488069169       -0.4571494266        0.9842575371
 C          4.2745479663       -0.4393911539        0.6052328032
 C          4.7797485445        0.6804651199        0.0557634443
 C          6.1790470449        0.9316679087       -0.4407322224
 C          6.4616692140        0.2519751603       -1.7896480636
 C          5.9731964926       -1.1900430442       -1.8962563199
 H          6.1437206482       -1.5231057750       -2.9234507073
 H          4.8960350200       -1.2180018330       -1.7217054204
 C          6.6644530507       -2.1816729282       -0.9633944140
 H          7.7394262309       -2.1667466643       -1.1565409173
 H          6.2952403946       -3.1781348925       -1.2193189628
 C          6.4354355469       -1.9636046598        0.5341044528
 H          7.0567053128       -1.1573637678        0.9148771790
 H          6.7589448872       -2.8732286355        1.0486050985
 C          4.9796505760       -1.7346444695        0.9281624852
 H          4.8888029457       -1.8542174152        2.0147329354
 H          4.3608054345       -2.5321829989        0.5009690960
 H          7.5363900261        0.2895607817       -1.9755877732
 H          5.9632265417        0.8308343069       -2.5709776912
 H          6.9025081704        0.6216390711        0.3074645156
 H          6.2755294678        2.0120480165       -0.5692122160
 O          4.0138866917        1.7853063878       -0.1633975238
 C          2.6665666119        1.8421230967        0.1554775418
 O          2.1307299455        2.9288485469       -0.1275932917
 O          2.3535557606       -1.4919798093        1.5097243565
 C          0.6302699235        0.6786885414        1.1493447862
 C         -0.2543377928        0.2289632311        0.0137193203
 C         -0.1336379990        0.7781544225       -1.2597971715
 C         -0.9559808837        0.3552225849       -2.2876670511
 C         -1.9270449029       -0.6054911851       -2.0622130343
 C         -2.0601556261       -1.1552434522       -0.7935893143
 C         -1.2188997866       -0.7439204261        0.2319360544
 H         -1.3300878999       -1.1915401757        1.2077536552
 N         -3.0474469085       -2.1243485793       -0.5203119908
 S         -4.2420009121       -1.7092626104        0.5786483210
 O         -3.6438030441       -1.4029098471        1.8511709836
 O         -5.1863812312       -2.8023724842        0.5484973073
 C         -4.9862936767       -0.2468657474       -0.1225165527
 C         -4.3814499381        0.9760348743        0.0891567238
 C         -4.9164142519        2.1016688698       -0.5169950655
 C         -6.0397474190        1.9851684574       -1.3213708363
 C         -6.6365903925        0.7497203954       -1.5233728162
 C         -6.1034804732       -0.3800258406       -0.9238625630
 H         -6.5372065288       -1.3590638899       -1.0492075577
 H         -7.5121015714        0.6635300265       -2.1466013839
 H         -6.4527409272        2.8637115602       -1.7913549200
 H         -4.4508280386        3.0612394449       -0.3581941846
 H         -3.5129736164        1.0313926990        0.7244137112
 H         -3.4775143582       -2.5085953098       -1.3504751868
 H         -2.5732710867       -0.9310979413       -2.8634820196
 H         -0.8473998958        0.7860247912       -3.2713329481
 H          0.6062888680        1.5454277107       -1.4299356025
 H          0.5773463336       -0.0990246488        1.9281805869
 C          0.1501787124        1.9834331434        1.7737097300
 C         -0.9251375880        2.8314280147        1.1691167040
 C         -1.2065872895        2.0431297039        2.4112304378
 H         -1.3149700242        2.5705890732        3.3470040600
 H         -1.8304437433        1.1634445682        2.3341181854
 H         -0.8185996862        3.9023828303        1.2486238513
 H         -1.3675199680        2.5065407298        0.2402832541
 H          0.9499487878        2.5110905068        2.2822040197
