  62
        -98.94754059
 C         -0.7344297106       -1.2961479297        0.0692727804
 C         -1.4243705601       -0.5708471096        1.0685947507
 C         -2.3670900500        0.4465092506        0.5858950510
 C         -2.4762941304        0.6664663407       -0.7370690290
 C         -3.4739588403        1.5900061410       -1.3722325186
 C         -4.7768755506        0.8463290413       -1.7026404483
 C         -5.3327666505        0.0191833713       -0.5432959982
 H         -6.2654888707       -0.4343335484       -0.8857767779
 H         -4.6414761106       -0.7975484688       -0.3229845884
 C         -5.5956161199        0.8190712913        0.7402980720
 H         -5.6394029997        1.8843003913        0.5110691120
 H         -6.5715154599        0.5329244415        1.1381990722
 C         -4.5740153796        0.5826498910        1.8542437416
 H         -4.4623592798       -0.4906076090        2.0285021115
 H         -4.9652512693        1.0237299111        2.7750278118
 C         -3.1817006396        1.1801969007        1.6133977413
 H         -3.2794792994        2.2344149408        1.3491782214
 H         -2.6207490293        1.1076286805        2.5498362311
 H         -5.5220162505        1.5791562215       -2.0173661280
 H         -4.5874194310        0.1723925213       -2.5411824484
 H         -3.6799792900        2.4183266410       -0.6979606685
 H         -3.0465679105        1.9750854109       -2.2986859587
 O         -1.7263316108        0.0143924306       -1.6609091992
 C         -0.8563962509       -0.9984765096       -1.2880625395
 O         -0.2625967513       -1.5423451097       -2.2377660897
 H          1.5435221198       -0.1541457203        0.4914955998
 C          2.1272074495       -0.9477417204        0.0471336796
 C          1.5779912492       -2.2201721502       -0.0474329603
 C          2.3459677788       -3.2360355204       -0.6018565206
 C          3.6250097387       -2.9740670006       -1.0611772810
 C          4.1645216790       -1.7047718407       -0.9728628810
 C          3.4056284894       -0.6815503606       -0.4140560407
 N          3.9071720497        0.6231366793       -0.3492915508
 S          3.3416698503        1.7431332393        0.7411510794
 O          4.3046482305        2.8224468891        0.6696739192
 O          3.1437470306        1.1719666693        2.0534099895
 C          1.7973874002        2.3189073797        0.0692673399
 C          1.6398748799        2.4052281698       -1.2993126000
 C          0.4645940098        2.9373079201       -1.8044055297
 C         -0.5211968098        3.3840132403       -0.9387028293
 C         -0.3511107994        3.2831619202        0.4328281606
 C          0.8175499906        2.7436551399        0.9441541402
 H          0.9847658409        2.6363768398        2.0044512102
 H         -1.1196370092        3.6237456203        1.1076146208
 H         -1.4266905398        3.8146866905       -1.3348548491
 H          0.3233060595        3.0033382102       -2.8712799396
 H          2.4254901196        2.0519598997       -1.9466111203
 H          4.8770465597        0.7464228491       -0.5954764611
 H          5.1597298990       -1.5003206809       -1.3365822813
 H          4.2103705884       -3.7707767707       -1.4945157612
 H          1.9426774486       -4.2321719903       -0.6799071505
 C          0.1815602593       -2.4332419299        0.4803407501
 H          0.2249485396       -2.3944301400        1.5798443601
 C         -0.4245289311       -3.7581907698        0.0623401402
 C         -0.1840759312       -4.9960494899        0.8723382600
 C         -1.5309507810       -4.3398010896        0.8885222305
 H         -2.3512644713       -4.8280241394        0.3839647407
 H         -1.8251455806       -3.7950762296        1.7740122206
 H         -0.0821248615       -5.9389735299        0.3564037099
 H          0.4331497791       -4.9052641601        1.7534608698
 H         -0.5003763615       -3.8561119297       -1.0151244098
 O         -1.2724152798       -0.7767075097        2.3041080006
