  62
        -98.93399746
 C         -2.2219859001       -1.3002796002        0.1911876789
 C         -3.1723331301       -0.6712792503        1.0342489189
 C         -4.0748683502        0.2957713997        0.3957908190
 C         -3.9388509002        0.5635856997       -0.9151417910
 C         -4.8127355803        1.4635496297       -1.7489372810
 C         -4.7958361204        2.9625396597       -1.3934124609
 C         -5.8993877004        3.3951730796       -0.4199765009
 H         -6.2877565105        4.3645159496       -0.7388202409
 H         -6.7265314604        2.6877654295       -0.4903832809
 C         -5.4760982304        3.5432911796        1.0444241591
 H         -4.9327292904        4.4833238296        1.1653366591
 H         -6.3824930504        3.6070844595        1.6502630291
 C         -4.5890998403        2.4275588996        1.5969804090
 H         -3.5727940303        2.5424581497        1.2114541990
 H         -4.5230203703        2.5488057096        2.6800933090
 C         -5.0715712802        1.0012287596        1.2689651790
 H         -6.0494089802        1.0266445695        0.7902708090
 H         -5.1517127901        0.4154853796        2.1869328090
 H         -3.8141620504        3.2338284597       -1.0051543910
 H         -4.9336840705        3.5086054397       -2.3280893009
 H         -4.4598623304        1.3382467997       -2.7747836910
 H         -5.8395102903        1.0930676796       -1.7015781310
 O         -2.9712135902       -0.0144509202       -1.6772387811
 C         -2.0823060202       -0.9454031302       -1.1515896311
 O         -1.2465700102       -1.3604714601       -1.9747583712
 O         -3.2672695301       -0.9131421103        2.2674626589
 C         -1.2978121300       -2.3286149202        0.8187301688
 C          0.1340397500       -2.0516507801        0.4354362988
 C          0.9295535400       -2.9411660100       -0.2735558513
 C          2.2330651300       -2.6076532399       -0.5974721913
 C          2.7727183499       -1.3925869399       -0.2184279613
 C          1.9834063999       -0.4912709599        0.4841621688
 C          0.6789436399       -0.8290903600        0.8094571088
 H          0.0608801099       -0.1236026601        1.3526454588
 N          2.5237733098        0.7409150101        0.8901386988
 S          3.4081764497        1.6472935202       -0.2105902112
 O          3.3199574896        3.0078068902        0.2757534388
 O          2.9732942197        1.4223173302       -1.5693997612
 C          5.0762580097        1.0628340203        0.0081940187
 C          5.6075416398        1.0709190103        1.2831345187
 C          6.9064649698        0.6258090304        1.4694396787
 C          7.6490823698        0.1854646904        0.3838731386
 C          7.1027011298        0.1873312804       -0.8903417314
 C          5.8034046897        0.6307084204       -1.0834945913
 H          5.3346140097        0.6444898004       -2.0547646413
 H          7.6812582198       -0.1546777795       -1.7333761514
 H          8.6595760398       -0.1614305495        0.5316463386
 H          7.3345649298        0.6228305804        2.4588594286
 H          4.9984030098        1.4231582102        2.0986849487
 H          1.8721523798        1.3256968100        1.3929560088
 H          3.7858197899       -1.1293351698       -0.4745705413
 H          2.8382552300       -3.3049652398       -1.1565063213
 H          0.5208703201       -3.8840802200       -0.5968644113
 H         -1.3948494500       -2.1518708402        1.9033638288
 C         -1.7183845399       -3.7711578702        0.5808236888
 C         -3.1599358599       -4.1309912603        0.3847243188
 C         -2.1933464199       -4.2643854002       -0.7517565212
 H         -1.9037901999       -5.2577256101       -1.0622406812
 H         -2.2440334700       -3.5526611002       -1.5606924812
 H         -3.5331611598       -5.0290883103        0.8534497988
 H         -3.8776052400       -3.3239243103        0.3533696489
 H         -1.1286962099       -4.4641287602        1.1730275788
