  62
        -98.93532978
 C         -2.1175146084       -0.8925076746       -0.4219599014
 C         -3.1568559336       -0.7301663551        0.5283238346
 C         -3.7846923483        0.6000213180        0.6338245579
 C         -3.3242235536        1.5922920059       -0.1500201913
 C         -3.8133666603        3.0129837230       -0.2466342169
 C         -5.1315195927        3.1351407220       -1.0277876346
 C         -6.1865506359        2.0907053711       -0.6733879167
 H         -7.0254191221        2.2199366699       -1.3622672291
 H         -5.7759102241        1.0943157278       -0.8459069212
 C         -6.7335754967        2.1754356455        0.7495165916
 H         -7.1668358323        3.1653489175        0.9085481158
 H         -7.5406176446        1.4429061619        0.8303407613
 C         -5.7296181866        1.8985614405        1.8709738206
 H         -5.0904522320        2.7592106912        2.0494269014
 H         -6.3028252663        1.7430634697        2.7896218095
 C         -4.8799891020        0.6473639382        1.6718090304
 H         -4.3919529856        0.4015741868        2.6228240233
 H         -5.5369967132       -0.2035579335        1.4585076409
 H         -4.9040126796        3.0311983885       -2.0914696341
 H         -5.5361772377        4.1354900186       -0.8652724054
 H         -3.9094433138        3.4422738326        0.7462903853
 H         -3.0402956295        3.5739631344       -0.7766764337
 O         -2.3121107171        1.3967283493       -1.0405618714
 C         -1.6837299152        0.1766928749       -1.2044879891
 O         -0.7834189676        0.1960402634       -2.0692595822
 H          0.8401625057       -1.0267654632       -1.1534808621
 C          0.9242733452       -1.5798052655       -0.2296712812
 C         -0.1744331831       -2.2832297427        0.2434251079
 C         -0.0581563461       -2.9585328037        1.4527988115
 C          1.1271252422       -2.9275523437        2.1670724926
 C          2.2184549214       -2.2204960624        1.6943807718
 C          2.1075324577       -1.5353794400        0.4918050714
 N          3.2097140285       -0.7909447100        0.0020619316
 S          3.6160087236        0.5559546888        0.9431302480
 O          4.0317762415        0.0957747751        2.2433984417
 O          2.5391428320        1.5249179060        0.9275336464
 C          5.0195565694        1.1765160356        0.0384320834
 C          6.2756068614        0.6809403582        0.3301205182
 C          7.3607895805        1.1351794092       -0.4022146532
 C          7.1723549750        2.0694850457       -1.4096657141
 C          5.9051757089        2.5578366620       -1.6905847703
 C          4.8155718108        2.1071966812       -0.9620740772
 H          3.8141099984        2.4664183639       -1.1407396460
 H          5.7607210556        3.2856064488       -2.4728907453
 H          8.0179296083        2.4217649809       -1.9789793167
 H          8.3478655575        0.7597302071       -0.1860292319
 H          6.3735189094       -0.0385066413        1.1259335022
 H          3.0105318021       -0.4516501675       -0.9320761230
 H          3.1386450994       -2.1685167786        2.2523108998
 H          1.2012742879       -3.4564387542        3.1053214311
 H         -0.9135505949       -3.4921594169        1.8416185087
 C         -1.4810511273       -2.2705204654       -0.5136007228
 H         -2.1757569606       -2.9415142930        0.0091086403
 C         -1.3141017248       -2.7638909612       -1.9368250271
 C         -1.1192362847       -4.2300349232       -2.1767338239
 C         -2.4081036379       -3.5716044538       -2.5652453730
 H         -2.6189651322       -3.4234921704       -3.6136839238
 H         -3.2853315312       -3.7745953100       -1.9683808350
 H         -0.4423639647       -4.5378135877       -2.9586671082
 H         -1.1219821854       -4.8804756025       -1.3152514286
 H         -0.7809852127       -2.0723948314       -2.5758406010
 O         -3.5618735499       -1.6713623393        1.2630330990
