  62
        -98.94340304
 C          1.2901890300        1.3519425284        0.6038849643
 C          2.1548847064        1.2058716445       -0.5080844788
 C          3.2389343717        0.2205366804       -0.3497549988
 C          3.3093505696       -0.5137296571        0.7751858943
 C          4.4054627067       -1.4891074385        1.0976508408
 C          4.1024778726       -2.9175676625        0.6270995010
 C          3.6133052660       -3.0038801952       -0.8173518343
 H          3.4530478427       -4.0596193444       -1.0460515477
 H          2.6454468254       -2.5073881014       -0.8964751844
 C          4.5708789431       -2.3957388561       -1.8502871074
 H          5.5704343730       -2.3037784561       -1.4237359692
 H          4.6439041205       -3.0753041683       -2.7020074444
 C          4.1281046956       -1.0384224560       -2.4004108121
 H          3.0883366548       -1.0973411220       -2.7320330971
 H          4.7365700603       -0.8165407524       -3.2812581373
 C          4.2685917254        0.1520835104       -1.4433090492
 H          5.2758121326        0.1614252813       -1.0199799270
 H          4.1373967561        1.0655673954       -2.0308940843
 H          5.0100396091       -3.5134689383        0.7408761821
 H          3.3386238552       -3.3477651597        1.2787914783
 H          5.3269234239       -1.1384668320        0.6350357537
 H          4.5388229823       -1.4964260417        2.1811353791
 O          2.3790453102       -0.4377970165        1.7618507386
 C          1.3631632460        0.4996643496        1.7093608593
 O          0.5993773697        0.4853789346        2.6951488052
 H         -1.9183854988        1.1131685006        1.4741544690
 C         -2.0019049943        1.3948526821        0.4320948907
 C         -0.9624276547        2.1008280579       -0.1608474221
 C         -1.0628606831        2.4253311723       -1.5082944236
 C         -2.1849284613        2.0647984883       -2.2347981568
 C         -3.2249899616        1.3738235151       -1.6378957408
 C         -3.1241202102        1.0295294286       -0.2968213707
 N         -4.1619184804        0.2715331952        0.2986886038
 S         -4.1911884650       -1.3331578714       -0.1887325152
 O         -4.4636987778       -1.3804964385       -1.6014680517
 O         -5.1419478159       -1.9959299640        0.6730764221
 C         -2.5375339917       -1.9062277361        0.1490930113
 C         -2.2807478355       -2.5564861936        1.3392033497
 C         -0.9733240833       -2.8890479757        1.6524966833
 C          0.0520885659       -2.5421132248        0.7872764957
 C         -0.2211852209       -1.8792331366       -0.3983622923
 C         -1.5280671782       -1.5616602713       -0.7276574449
 H         -1.7718437456       -1.0544967903       -1.6469718158
 H          0.5777120218       -1.5872786105       -1.0631882552
 H          1.0716611798       -2.7800134244        1.0452117899
 H         -0.7524427074       -3.4003545504        2.5755777758
 H         -3.1063087590       -2.7939094381        1.9911498490
 H         -4.1325133245        0.2961067716        1.3093771239
 H         -4.0975055355        1.0708355769       -2.1933446088
 H         -2.2505017472        2.3254962621       -3.2802751708
 H         -0.2475813567        2.9391508249       -1.9908085495
 C          0.2407637033        2.4519134642        0.6785645591
 H         -0.0871125517        2.4672548277        1.7268773663
 C          0.8180072803        3.8119584602        0.3403823291
 C          0.0570232943        5.0410087865        0.7330931994
 C          1.3262422090        4.6851434211        1.4460970641
 H          2.2059237633        5.2847469496        1.2660098925
 H          1.2562457635        4.3079496228        2.4562493990
 H          0.0626526142        5.8874243174        0.0637707569
 H         -0.8757826792        4.9035566891        1.2592073308
 H          1.3644122471        3.8332130728       -0.5929369868
 O          2.0667970136        1.8787574808       -1.5672514994
