  62
        -98.94784872
 C          0.7666794367        1.2445624950        0.5891433589
 C          1.1688252654        0.6911984067       -0.6504230438
 C          2.1155939776       -0.4276208409       -0.5670116472
 C          2.4925609977       -0.8967414702        0.6357384310
 C          3.4842817780       -2.0004281141        0.8858609273
 C          4.9465311261       -1.5322769363        0.8585154344
 C          5.5009967393       -1.2049404421       -0.5287691141
 H          6.5841324587       -1.1131748044       -0.4258370919
 H          5.3081608146       -2.0399392104       -1.2027403060
 C          4.9539659962        0.0915558083       -1.1424332991
 H          4.5001444010        0.7029981163       -0.3588833750
 H          5.7791778750        0.6717533899       -1.5617227376
 C          3.9322217399       -0.1171559653       -2.2604312932
 H          4.4128275534       -0.6094661196       -3.1086419767
 H          3.5843987192        0.8639760240       -2.5930695983
 C          2.7052394050       -0.9401751081       -1.8456967249
 H          1.9447062598       -0.8400787945       -2.6232720626
 H          2.9743543739       -1.9904826735       -1.7477185309
 H          5.0467278416       -0.6583912322        1.5065593781
 H          5.5526972023       -2.3336235903        1.2874455501
 H          3.2710567766       -2.3932076765        1.8820252786
 H          3.3456904025       -2.7970336893        0.1560799870
 O          1.9965952663       -0.4040471651        1.8033773865
 C          1.1535371523        0.6952767977        1.8101114451
 O          0.8189477069        1.0804579473        2.9505809073
 H         -1.6131838165        0.2925408375        0.5641130515
 C         -2.0303003714        1.0613903154       -0.0704809382
 C         -1.3724917858        2.2796842506       -0.1794927871
 C         -1.9298655491        3.2674654470       -0.9818795230
 C         -3.1110152630        3.0309156553       -1.6630702682
 C         -3.7604773994        1.8157370991       -1.5556458712
 C         -3.2118979630        0.8211330741       -0.7522616131
 N         -3.8270855987       -0.4302936745       -0.6563166863
 S         -3.4750509152       -1.5375166753        0.5278555571
 O         -4.4927681311       -2.5552722012        0.3665425290
 O         -3.4006252971       -0.9340339374        1.8385810577
 C         -1.9043801444       -2.2325850605        0.0628509615
 C         -1.6443879944       -2.4709207199       -1.2715661291
 C         -0.4605458792       -3.0998443766       -1.6202692515
 C          0.4312577700       -3.4895822102       -0.6339723466
 C          0.1604861317       -3.2359157870        0.7010987607
 C         -1.0173726818       -2.5985513363        1.0549572046
 H         -1.2610215704       -2.3722907340        2.0818205659
 H          0.8565798685       -3.5324661986        1.4690874108
 H          1.3411287536       -3.9996287968       -0.9071160507
 H         -0.2399717740       -3.2892391815       -2.6583131812
 H         -2.3630640030       -2.1632558453       -2.0127308319
 H         -4.7443343519       -0.5247041818       -1.0624351858
 H         -4.6799223416        1.6307737593       -2.0892263016
 H         -3.5327274154        3.8052475559       -2.2857710020
 H         -1.4391383304        4.2222090737       -1.0758373234
 C         -0.1049724105        2.4852742110        0.6125421531
 H         -0.3873868210        2.6414231317        1.6650639343
 C          0.7054803074        3.6780605168        0.1424204257
 C          0.4558921379        5.0420081946        0.7100845594
 C          1.6980472203        4.2911574149        1.0823320518
 H          2.6449130203        4.6278447417        0.6874330097
 H          1.7645974825        3.8679250588        2.0745442428
 H          0.5537123364        5.8983999510        0.0598957042
 H         -0.3176107649        5.1394887594        1.4570181882
 H          0.9880448955        3.6000774628       -0.9014623395
 O          0.7752661483        1.1191732123       -1.7656731654
