  62
        -98.94180692
 C          2.5365195129       -0.3096505386       -0.0250776717
 C          2.2659369235       -1.3523000861        0.8878957234
 C          1.5636187016       -2.5321862959        0.3538387383
 C          1.2247599431       -2.5515577099       -0.9472982878
 C          0.4297393439       -3.5985363554       -1.6783463316
 C         -1.0687192802       -3.2479910315       -1.6494354945
 C         -1.8371385623       -3.8246303407       -0.4620214875
 H         -2.8571162718       -3.4366512071       -0.5169912237
 H         -1.8886558004       -4.9118884716       -0.5589510096
 C         -1.2598723544       -3.4790785903        0.9126353380
 H         -0.9863800515       -2.4216305882        0.9399841884
 H         -2.0514588088       -3.6178342859        1.6524115178
 C         -0.0583475683       -4.3530068728        1.3021332928
 H         -0.2224828473       -4.7667699249        2.2996283027
 H          0.0033359335       -5.2015097128        0.6207698137
 C          1.2918183759       -3.6274308821        1.3499894420
 H          2.0958599398       -4.3684022163        1.2740095914
 H          1.4057786056       -3.1446021772        2.3261152850
 H         -1.1607478474       -2.1581044784       -1.6459752805
 H         -1.5335740861       -3.6164704996       -2.5666182165
 H          0.6134185530       -4.5864859299       -1.2661590701
 H          0.7738826094       -3.5793227262       -2.7145101457
 O          1.5355094269       -1.5379697006       -1.8019301930
 C          2.1553480875       -0.3841144104       -1.3647310585
 O          2.3316625629        0.4761805827       -2.2497873649
 O          2.5872751582       -1.2940517812        2.1083376611
 C          3.1301171243        0.9918129622        0.4859322759
 C          2.1233696043        2.0920272346        0.2477247551
 C          2.4379594818        3.3377132805       -0.2782994366
 C          1.4358261039        4.2580390392       -0.5374494502
 C          0.1081036495        3.9516670701       -0.3025111801
 C         -0.2134670529        2.7150371323        0.2465786964
 C          0.7950959905        1.8168399820        0.5460980616
 H          0.5339367948        0.8616184720        0.9781613176
 N         -1.5463826486        2.3499088740        0.5108896111
 S         -1.9413030506        0.7165393696        0.3042666968
 O         -1.6132280514        0.0105709146        1.5172362311
 O         -1.3650296447        0.2086631992       -0.9194351030
 C         -3.7138402948        0.8320488180        0.1486171246
 C         -4.2821795153        0.8608463510       -1.1107162968
 C         -5.6582473053        0.9849509001       -1.2227942395
 C         -6.4375792656        1.0814203854       -0.0797188662
 C         -5.8529043397        1.0486101456        1.1776781622
 C         -4.4778921402        0.9230961491        1.2966648247
 H         -3.9782555498        0.8828134696        2.2504626322
 H         -6.4622027289        1.1195738945        2.0640491862
 H         -7.5078465623        1.1790707248       -0.1698169801
 H         -6.1152183647        1.0057504179       -2.1990104702
 H         -3.6359087575        0.7741792422       -1.9697634243
 H         -2.2156665165        2.9549457494        0.0543596406
 H         -0.6725305599        4.6574937137       -0.5423869061
 H          1.6919367906        5.2203043313       -0.9544669749
 H          3.4634581574        3.5813976354       -0.5033340679
 H          3.2520037518        0.8560796201        1.5712866322
 C          4.4846883553        1.2624691038       -0.1318869504
 C          5.5103656852        2.0595979726        0.6160514530
 C          5.6907862010        0.5826109641        0.4410857586
 H          6.4536351880        0.2300199294       -0.2365019646
 H          5.5360046788       -0.0588092969        1.2964872257
 H          6.1549633983        2.7219722929        0.0583178545
 H          5.2425276836        2.4234819524        1.5964401630
 H          4.4334111581        1.3695507960       -1.2095390505
