  62
        -98.94517824
 C         -1.8609525004       -1.2839773803       -0.0586090798
 C         -3.0268670303       -0.8429516203        0.6107016804
 C         -3.7354804701        0.2823500301       -0.0104335392
 C         -3.2639783201        0.8219803903       -1.1493621090
 C         -3.8853251899        1.9598868007       -1.9133989886
 C         -3.5057634295        3.3505852305       -1.3861286682
 C         -4.1535569994        3.7426193702       -0.0574147781
 H         -3.9758311891        4.8107015301        0.0831553122
 H         -5.2323373194        3.5981898704       -0.1233341081
 C         -3.6054236595        2.9877919897        1.1618793917
 H         -2.6482368096        2.5274769996        0.9041725415
 H         -3.4101263993        3.6951546794        1.9712804419
 C         -4.5403388097        1.9118864997        1.7150019514
 H         -4.0384871097        1.4180431894        2.5513327012
 H         -5.4495335095        2.3799435098        2.0985498716
 C         -4.9363059099        0.8347760501        0.6965035011
 H         -5.6486320699        1.2402406605       -0.0216813088
 H         -5.4121535701        0.0123297701        1.2362918608
 H         -2.4185090895        3.4060602302       -1.2911381983
 H         -3.8091292794        4.0793868408       -2.1412124980
 H         -3.5297797199        1.8738365410       -2.9424136187
 H         -4.9704524099        1.8534433809       -1.9110741886
 O         -2.1412392802        0.3662784003       -1.7653514592
 C         -1.4062020004       -0.6888561200       -1.2359185896
 O         -0.3941468205       -0.9859611100       -1.8940627298
 O         -3.4536073303       -1.3624421005        1.6774809903
 C         -1.0700039506       -2.4384712606        0.5256287498
 C          0.3612567295       -2.0444176510        0.8007401699
 C          1.4230820093       -2.9290784312        0.6539207495
 C          2.7192340594       -2.5268435516        0.9270821996
 C          2.9898369297       -1.2348573618        1.3377892000
 C          1.9368758699       -0.3398802216        1.4786978703
 C          0.6371105298       -0.7527321012        1.2294748502
 H         -0.1779239101       -0.0496235611        1.3522859305
 N          2.2034003302        0.9883945283        1.8513935007
 S          3.4866421203        1.7593620782        1.0985181209
 O          4.6995280903        1.4898199177        1.8314973407
 O          3.0989442706        3.1517734483        1.0265347213
 C          3.6122919200        1.0521573687       -0.5357275294
 C          4.8337245399        0.5825589386       -0.9753782796
 C          4.9199150297        0.0181778890       -2.2376842898
 C          3.7861226897       -0.0783966706       -3.0297029597
 C          2.5666255998        0.3995466296       -2.5755064595
 C          2.4788790300        0.9771313792       -1.3198961793
 H          1.5360396701        1.3484122293       -0.9499826191
 H          1.6731604397        0.3019430899       -3.1709005795
 H          3.8487943795       -0.5318819003       -4.0062776599
 H          5.8668233296       -0.3532133911       -2.5951996099
 H          5.6849519500        0.6612027882       -0.3186434996
 H          1.3866334303        1.5811830284        1.8659247909
 H          3.9934205397       -0.9031238520        1.5503135100
 H          3.5316363492       -3.2274830317        0.8115421793
 H          1.2349364090       -3.9367269211        0.3220947092
 H         -1.5528978806       -2.6654589708        1.4886446098
 C         -1.1857621210       -3.6543983503       -0.3724513506
 C         -1.2134986812       -5.0349446805        0.2103962690
 C         -2.4626293511       -4.4385742401       -0.3628551307
 H         -2.8398426213       -4.8233175797       -1.2984720708
 H         -3.2361971810       -4.1151255901        0.3185027794
 H         -0.7335890214       -5.8341058004       -0.3342542813
 H         -1.1459067012       -5.1281130109        1.2838555790
 H         -0.6943380610       -3.5100642201       -1.3281091905
