  62
        -98.94134778
 C         -2.4595640149       -1.1937664187        0.1555042936
 C         -2.8134554600       -0.2851865655        1.1869224872
 C         -3.4000609933        0.9920770821        0.7657513822
 C         -3.5734449568        1.2313189683       -0.5461900420
 C         -4.1127466437        2.5067274156       -1.1242756033
 C         -2.9824631389        3.4926186100       -1.4503974468
 C         -1.9890838688        3.7020140843       -0.3068282621
 H         -1.4232489236        2.7801780746       -0.1456797321
 H         -1.2685597601        4.4533611449       -0.6388224574
 C         -2.6265429583        4.1533314839        1.0150369788
 H         -2.0207329689        4.9591925378        1.4344823798
 H         -3.6212906522        4.5590601629        0.8262876505
 C         -2.7165018231        3.0622212342        2.0836455650
 H         -2.9546824849        3.5397287113        3.0378424017
 H         -1.7419587574        2.5785279177        2.1911046336
 C         -3.7702155174        1.9744476178        1.8403971917
 H         -4.7353580323        2.4373315599        1.6250003488
 H         -3.8644312832        1.3901883000        2.7603335457
 H         -3.4297201278        4.4500209581       -1.7249984334
 H         -2.4290799978        3.1154047650       -2.3139998020
 H         -4.6495963914        2.2675816975       -2.0440332120
 H         -4.8063601859        2.9550022445       -0.4155084193
 O         -3.2340483947        0.3370337486       -1.5072155894
 C         -2.6409436449       -0.8798722910       -1.1911792482
 O         -2.3450891676       -1.5601631376       -2.1931635642
 O         -2.6507113236       -0.5411519149        2.4099754616
 C         -1.8066503239       -2.4931783670        0.5982792525
 C         -0.3142821615       -2.2943027350        0.6718609999
 C          0.4053948608       -2.5777890104        1.8258937817
 C          1.7648814409       -2.3221927962        1.8899761048
 C          2.4296876430       -1.7659761171        0.8111078278
 C          1.7172610683       -1.4803638380       -0.3456977363
 C          0.3624266480       -1.7554220552       -0.4143106533
 H         -0.1825897516       -1.5252765565       -1.3189224389
 N          2.3787702781       -0.8490068491       -1.4321892704
 S          2.5173527765        0.8166949799       -1.1824328465
 O          1.3808480648        1.3351899424       -0.4526787741
 O          2.7592688656        1.3932845045       -2.4871524485
 C          3.9909585022        0.9360742444       -0.1932729552
 C          3.8987185290        1.2855659773        1.1392765123
 C          5.0580335433        1.3400191022        1.8977144662
 C          6.2801768824        1.0443005815        1.3131720684
 C          6.3553599121        0.6966619033       -0.0277036700
 C          5.2006371722        0.6404599887       -0.7914618717
 H          5.2099590093        0.3797108056       -1.8366386580
 H          7.3075974508        0.4680183531       -0.4783914923
 H          7.1797461366        1.0853082074        1.9067833987
 H          5.0014444205        1.6095167006        2.9400960630
 H          2.9254442436        1.5010447733        1.5508003762
 H          1.8872566572       -0.9895736346       -2.3058264078
 H          3.4850188788       -1.5514888073        0.8561577001
 H          2.3099835528       -2.5467398352        2.7937595133
 H         -0.1131178749       -2.9796254076        2.6839831977
 H         -2.1701018082       -2.6546880325        1.6254561573
 C         -2.2189323284       -3.7014214889       -0.2291523703
 C         -1.2832532517       -4.4457384285       -1.1297550790
 C         -1.7325302365       -5.0674785754        0.1562118872
 H         -2.4262326565       -5.8933978270        0.1199851171
 H         -1.0115829050       -5.1275095774        0.9575018615
 H         -1.6810816213       -4.8211336495       -2.0602041568
 H         -0.2621064565       -4.1055357407       -1.2023571472
 H         -3.2474526105       -3.6275013482       -0.5668778802
