  62
        -98.93624677
 C         -0.9064785814       -1.6312867906        0.6473139457
 C         -1.4191377028       -1.3613746282       -0.6430814493
 C         -2.6156210520       -0.4966854963       -0.7034061959
 C         -3.1152735054        0.0155315414        0.4335822961
 C         -4.3421085453        0.8703959484        0.6014687572
 C         -3.9945760860        2.3671503025        0.5937553797
 C         -3.9440070756        3.0034992213       -0.7941299810
 H         -4.9582570922        3.0744475488       -1.1925280673
 H         -3.5701171066        4.0227135187       -0.6770612451
 C         -3.0681580913        2.2674247982       -1.8109959163
 H         -2.1408895552        1.9450925508       -1.3336665027
 H         -2.7984920404        2.9737632827       -2.5978932457
 C         -3.7764261170        1.0623523156       -2.4483128824
 H         -3.7183625035        1.1409192363       -3.5360036849
 H         -4.8357906299        1.0927970016       -2.1941858113
 C         -3.1977521938       -0.3094020380       -2.0781177530
 H         -3.9658552216       -1.0746942519       -2.2366814109
 H         -2.3760912910       -0.5538418355       -2.7592689197
 H         -4.7397642756        2.9016987327        1.1864656215
 H         -3.0299846761        2.4830018861        1.0912036439
 H         -5.0783816438        0.6326394652       -0.1608417142
 H         -4.7583319798        0.6163720924        1.5790063510
 O         -2.5149459109       -0.1743409031        1.6430602436
 C         -1.4105518096       -0.9930613845        1.7824018641
 O         -0.9717515543       -1.0689709809        2.9480268242
 O         -0.9256629048       -1.8260470643       -1.7028046079
 C          0.2599129578       -2.5793293230        0.8599472153
 C          1.3509787895       -2.3137340104       -0.1479823745
 C          1.8484885209       -3.2687479235       -1.0241460493
 C          2.8686554442       -2.9450479762       -1.9015015260
 C          3.4227845851       -1.6788627691       -1.9110453929
 C          2.9296802048       -0.7138457602       -1.0389501928
 C          1.8985396444       -1.0368065650       -0.1736728864
 H          1.5121202217       -0.2877817362        0.5019543826
 N          3.4542574490        0.5855808520       -1.0383458441
 S          3.5052928972        1.5037648082        0.3536901343
 O          4.5213495367        2.4994163091        0.0850794271
 O          3.7105854824        0.6902392276        1.5289800937
 C          1.9240988558        2.3178904343        0.4139396368
 C          1.5791617095        3.1358089664       -0.6442109006
 C          0.3767425896        3.8209445168       -0.5970753918
 C         -0.4552308193        3.6801758612        0.5034599302
 C         -0.1002281649        2.8477081363        1.5532303900
 C          1.1022541236        2.1597291424        1.5112089490
 H          1.4083645166        1.5031044653        2.3118093092
 H         -0.7490604915        2.7243185531        2.4068979331
 H         -1.3846224801        4.2256001233        0.5448057165
 H          0.0907560562        4.4640273106       -1.4135351719
 H          2.2597285213        3.2288116147       -1.4740219265
 H          4.2586307854        0.7291858227       -1.6302400166
 H          4.2236523060       -1.4315911778       -2.5911854364
 H          3.2422779205       -3.6931681149       -2.5843338746
 H          1.4243408086       -4.2590836271       -1.0378975194
 H          0.6634959055       -2.3168873855        1.8529790802
 C         -0.1470900051       -4.0444969351        0.9324692751
 C         -1.5125543605       -4.4471899071        1.4018693779
 C         -1.1208673741       -4.6546518288       -0.0287658722
 H         -0.9414038125       -5.6645072120       -0.3677789186
 H         -1.5495845142       -4.0110408839       -0.7801944474
 H         -1.5983499955       -5.3102661553        2.0449766677
 H         -2.2156551231       -3.6600186883        1.6333154119
 H          0.6744123673       -4.6743971943        1.2604301715
