  62
        -98.94094337
 C         -1.7306968683       -1.0764612041       -0.0039754430
 C         -2.1512494447        0.1333853316       -0.6098200750
 C         -3.6050058698        0.2855375312       -0.7930556631
 C         -4.4330841761       -0.6950484459       -0.3925687956
 C         -5.9307251228       -0.6442552144       -0.4732332964
 C         -6.5357945557       -0.0693075436        0.8151325901
 C         -5.8848333566        1.2354751448        1.2742901223
 H         -6.4126435430        1.5638973611        2.1722593609
 H         -4.8505984699        1.0361587677        1.5641875436
 C         -5.9078652906        2.3587489260        0.2283016872
 H         -6.2064437905        3.2878243557        0.7184653087
 H         -6.6565225421        2.1402021751       -0.5341020540
 C         -4.5609216327        2.6252620271       -0.4466487009
 H         -3.7868262561        2.7533981407        0.3144400050
 H         -4.6367107381        3.5671453346       -0.9967523885
 C         -4.0869092231        1.5547065354       -1.4377212924
 H         -4.8785013237        1.3447194561       -2.1602033590
 H         -3.2271491418        1.9619938105       -1.9783195917
 H         -6.4202234495       -0.8082431700        1.6114002569
 H         -7.6031353398        0.0916909796        0.6532827467
 H         -6.3022256934       -1.6603616248       -0.6166091583
 H         -6.2232932517       -0.0371035370       -1.3276669098
 O         -3.9931559737       -1.8396254143        0.1896389652
 C         -2.6430596478       -2.0487162331        0.4163532345
 O         -2.3834578569       -3.1213900146        0.9965137114
 O         -1.3720109202        1.0480080293       -0.9819545627
 C         -0.2656756339       -1.3704281319        0.2727253628
 C          0.4158960386       -0.1514406758        0.8422140598
 C          0.0113124820        0.3191288096        2.0891778087
 C          0.6018616539        1.4348721653        2.6490537071
 C          1.6256591796        2.0920132403        1.9887399026
 C          2.0355113617        1.6311948436        0.7439210048
 C          1.4314649140        0.5163818511        0.1777886853
 H          1.7334388866        0.2120253936       -0.8094502748
 N          3.0674573409        2.2746059004        0.0488118797
 S          4.1080850836        1.4060823461       -0.9202137176
 O          5.3110725823        2.2108329091       -0.9639152573
 O          3.5056740539        1.1163621408       -2.1966695370
 C          4.4278932358       -0.1133763436       -0.0388695072
 C          4.8815572920       -0.0392585200        1.2632806996
 C          5.1276216160       -1.2135595780        1.9556965466
 C          4.9204739147       -2.4370462015        1.3371013951
 C          4.4734943670       -2.4954124823        0.0264182118
 C          4.2232576915       -1.3233066265       -0.6695871117
 H          3.8694579943       -1.3229724505       -1.6884458891
 H          4.3152420308       -3.4478506076       -0.4543998847
 H          5.1095902165       -3.3507391370        1.8781379511
 H          5.4781495073       -1.1719899435        2.9743093673
 H          5.0412048811        0.9261466356        1.7148104856
 H          3.5293434451        3.0210744987        0.5453895538
 H          2.0906746740        2.9631702338        2.4244024215
 H          0.2694859062        1.7938147905        3.6115630847
 H         -0.7860835531       -0.1971424963        2.6069649216
 H         -0.2770087939       -2.1448295133        1.0576159603
 C          0.4861321589       -1.9647745555       -0.9085952186
 C         -0.2063871285       -2.8262479297       -1.9204802580
 C          0.2981215635       -1.4705965549       -2.3100035465
 H          1.1645289286       -1.4017180120       -2.9525470375
 H         -0.4170053782       -0.6789541390       -2.4696145362
 H          0.3115184152       -3.6969599879       -2.2933610325
 H         -1.2728352610       -2.9643133920       -1.8160465238
 H          1.4921710251       -2.2644975781       -0.6300494830
