  62
        -98.93597875
 C         -1.8377254807       -1.1038988154       -0.0313210815
 C         -2.3527442479        0.1696950549       -0.3620010388
 C         -3.8017134015        0.3678930305       -0.1560672667
 C         -4.5435477063       -0.6547378360        0.3055193067
 C         -6.0226185728       -0.6929237500        0.5965048691
 C         -6.9462041525       -0.0519435041       -0.4508869935
 C         -7.5972084546        1.2472627469        0.0265880687
 H         -8.5156102684        1.4077412320       -0.5425312372
 H         -7.8800446501        1.1294862922        1.0746842144
 C         -6.7355197403        2.4995883450       -0.1260821081
 H         -6.6634981339        2.7620291147       -1.1838741229
 H         -7.2527016087        3.3200667446        0.3770214246
 C         -5.3182399468        2.3930129619        0.4407110234
 H         -4.9629779507        3.4057595305        0.6430078007
 H         -5.3253286535        1.8633490431        1.3925709026
 C         -4.3187298846        1.7327420793       -0.5207951270
 H         -4.7426726049        1.6910479570       -1.5285546624
 H         -3.4204800684        2.3535472196       -0.6001311847
 H         -6.3967078821        0.1172802777       -1.3756295300
 H         -7.7418940472       -0.7645390341       -0.6740755684
 H         -6.2626585648       -1.7530908641        0.7039805518
 H         -6.1956747676       -0.2341358907        1.5730864312
 O         -3.9993909949       -1.8672446706        0.6140776722
 C         -2.6499151632       -2.1230604290        0.4632239200
 O         -2.3001124479       -3.2724613526        0.7991006400
 O         -1.6410592485        1.1080741866       -0.8079159649
 C         -0.3585676599       -1.4013742902       -0.2086854271
 C          0.4527405036       -0.4249504559        0.6069961020
 C          0.2102082138       -0.3477829861        1.9770056729
 C          0.9000792048        0.5495896417        2.7673143163
 C          1.8547929214        1.3832161133        2.2103576007
 C          2.1081139707        1.3120185025        0.8464007114
 C          1.4144064284        0.4047922796        0.0545741678
 H          1.6179627693        0.3871520769       -1.0022185953
 N          3.0539517228        2.1648711886        0.2567731397
 S          4.1448191515        1.6042779975       -0.8760315360
 O          5.1328496888        2.6556903018       -0.9738309184
 O          3.4707571022        1.2462657574       -2.0970214985
 C          4.8701217670        0.1629851929       -0.1167781525
 C          4.3681242181       -1.0896598317       -0.4047681430
 C          4.9031846450       -2.1899263885        0.2468910449
 C          5.9232898946       -2.0197382365        1.1698443532
 C          6.4193540157       -0.7542788656        1.4453257793
 C          5.8862798981        0.3495800653        0.8004997082
 H          6.2503757821        1.3487497938        0.9768535314
 H          7.2161080218       -0.6258201524        2.1601421344
 H          6.3356027682       -2.8791885115        1.6745428644
 H          4.5200277826       -3.1747859077        0.0319044491
 H          3.5781713390       -1.1841823147       -1.1311560918
 H          3.5004731976        2.8018839281        0.8998934946
 H          2.3880359653        2.0932697576        2.8240420420
 H          0.6954443506        0.6021329316        3.8260316474
 H         -0.5402681853       -0.9965316025        2.4086309310
 H         -0.2032448653       -2.4077650617        0.2064079725
 C         -0.0010294667       -1.4222414003       -1.6793467624
 C          1.1367187521       -2.2677209495       -2.1640823266
 C         -0.2756350723       -2.6612796500       -2.4752150545
 H         -0.6326154610       -2.5545297935       -3.4885815522
 H         -0.7001138769       -3.5040407523       -1.9488674763
 H          1.7545210661       -1.8891371272       -2.9653054380
 H          1.6676884093       -2.8553416062       -1.4301328255
 H         -0.1747829732       -0.4707835000       -2.1691461017
