  62
        -98.94486809
 C         -2.5776661612       -0.1173316146        0.0697984807
 C         -2.3524543790        0.8711310089        1.0562442375
 C         -2.1525998113        2.2398286533        0.5643837110
 C         -2.2096993905        2.4774627002       -0.7586188347
 C         -2.0346385605        3.8244223986       -1.3976770630
 C         -0.5794788970        4.0799729759       -1.8094780162
 C          0.4422012365        3.8009842802       -0.7067448305
 H          0.4879611753        2.7266446152       -0.5126136697
 H          1.4215159533        4.0903049744       -1.0952414166
 C          0.1827054438        4.5449559066        0.6103325404
 H          1.1337437163        4.9339693455        0.9802569765
 H         -0.4723512226        5.3993934019        0.4336924760
 C         -0.4023172935        3.6772807997        1.7270485865
 H         -0.2901263246        4.2162115588        2.6722243362
 H          0.1758288931        2.7515039945        1.8065319285
 C         -1.8856117624        3.3110233964        1.5831743324
 H         -2.2243409104        2.9041221883        2.5407441218
 H         -2.4683241831        4.2090857851        1.3661634443
 H         -0.4941313163        5.1202669191       -2.1306575687
 H         -0.3425898985        3.4386524376       -2.6613427185
 H         -2.3652587473        4.5922542161       -0.7006427758
 H         -2.6643119721        3.8603927253       -2.2887738726
 O         -2.4259806080        1.5019318581       -1.6775954142
 C         -2.5736713217        0.1778458267       -1.2929518453
 O         -2.7076917683       -0.6197285906       -2.2410838709
 O         -2.3309496663        0.6200106759        2.2936938665
 C         -2.7323874362       -1.5639732615        0.4997114430
 C         -1.5795409308       -2.3866743300       -0.0245274551
 C         -1.7158897625       -3.6862548859       -0.4946697137
 C         -0.6075477462       -4.3858852755       -0.9418634055
 C          0.6497771186       -3.8119139434       -0.9310963455
 C          0.7961733142       -2.5082720620       -0.4660752860
 C         -0.3121658795       -1.8188953646       -0.0060371212
 H         -0.1882590297       -0.8139983881        0.3696969671
 N          2.0494472019       -1.8751307626       -0.4935331529
 S          2.3390386180       -0.5143564394        0.4528194588
 O          2.0766750339       -0.8021999189        1.8466145431
 O          1.6414171671        0.6098161489       -0.1170640255
 C          4.0929165482       -0.3327991650        0.1913713516
 C          4.9744341299       -0.8946715884        1.0955592738
 C          6.3363396227       -0.7765945599        0.8666550161
 C          6.7911894081       -0.1041854138       -0.2577136286
 C          5.8945520847        0.4568500541       -1.1550095205
 C          4.5315749296        0.3425176456       -0.9315925996
 H          3.7963840650        0.7677444357       -1.5950930992
 H          6.2513886382        0.9823506766       -2.0260332363
 H          7.8512950888       -0.0136035654       -0.4341923962
 H          7.0356523228       -1.2081007125        1.5644785146
 H          4.5743629825       -1.3982562433        1.9609187806
 H          2.8295970095       -2.5165517781       -0.5026191390
 H          1.5095119031       -4.3582071963       -1.2871722440
 H         -0.7261584382       -5.3955123641       -1.3050178155
 H         -2.6885621830       -4.1500483786       -0.5132909725
 H         -2.6614467750       -1.5499620932        1.5989210671
 C         -4.0903423283       -2.1054959825        0.1049410946
 C         -4.7691780343       -3.1404995220        0.9500989113
 C         -5.2834061069       -1.7334256198        0.9317811765
 H         -6.2160121616       -1.5280618521        0.4283598445
 H         -5.1089128902       -1.1120611022        1.7983385278
 H         -5.3541468483       -3.9036807070        0.4593502788
 H         -4.2544863477       -3.4781784805        1.8370829296
 H         -4.2207295611       -2.1518351364       -0.9702219112
