  62
        -98.92795159
 C         -2.5601613089       -1.1628044945        0.6594714100
 C         -2.6705918515        0.1521604127        1.1788277769
 C         -3.9017746290        0.8851187613        0.8603085957
 C         -4.8484053087        0.2922000389        0.1111285104
 C         -6.1915774733        0.8606282707       -0.2642895338
 C         -6.1773436574        2.1034792510       -1.1746466964
 C         -6.2321740959        3.4387501577       -0.4222490124
 H         -6.8897586541        4.1207905693       -0.9650063757
 H         -6.6893451130        3.2733539115        0.5540618227
 C         -4.8923627635        4.1590908560       -0.2435573348
 H         -5.0310626257        4.9431585591        0.5040049860
 H         -4.6203866638        4.6455773466       -1.1831469790
 C         -3.7121823847        3.2811260380        0.1739283201
 H         -3.3648513698        2.6985266380       -0.6831271885
 H         -2.8833397073        3.9343844399        0.4546389652
 C         -4.0118236967        2.3066038204        1.3295130924
 H         -3.2714214374        2.4310073320        2.1222667339
 H         -4.9993878691        2.4972829411        1.7471916416
 H         -5.3040192271        2.0678824221       -1.8255740382
 H         -7.0593038159        2.0364786968       -1.8136533263
 H         -6.7424877631        1.0889863555        0.6509856523
 H         -6.7156866235        0.0507512721       -0.7758855465
 O         -4.7022520225       -0.9679755842       -0.3768137120
 C         -3.5582428752       -1.7223017502       -0.1396051504
 O         -3.5798011241       -2.8402438087       -0.6841728591
 O         -1.7803141993        0.6824635016        1.8980065659
 C         -1.2895963638       -1.9193362138        1.0028304791
 C         -0.2244511389       -1.6666667261       -0.0338587647
 C         -0.4764446058       -1.8583467384       -1.3887082228
 C          0.5116160262       -1.6117663621       -2.3242588030
 C          1.7646998553       -1.1715198834       -1.9340049130
 C          2.0229573225       -0.9640000522       -0.5858456542
 C          1.0277340549       -1.2133749616        0.3525415388
 H          1.2251413989       -1.0366589261        1.4013789047
 N          3.2983808214       -0.5382724398       -0.1653006378
 S          4.0341833761        0.7403462147       -0.9907255881
 O          3.1772264673        1.9058670587       -0.9767485694
 O          4.4442193884        0.2735502544       -2.2906821935
 C          5.4662888811        1.0001533362        0.0361684958
 C          6.5462498935        0.1509805948       -0.1141242501
 C          7.6539715813        0.3268987008        0.6994041274
 C          7.6632285532        1.3427544541        1.6439191255
 C          6.5724982426        2.1879649189        1.7815516489
 C          5.4602121259        2.0164608090        0.9721763970
 H          4.5931638612        2.6542599322        1.0396537643
 H          6.5835537905        2.9784306255        2.5146884187
 H          8.5270139584        1.4785805799        2.2753957003
 H          8.5050717382       -0.3263999634        0.5944942006
 H          6.4974366467       -0.6180768091       -0.8669810967
 H          3.3131190739       -0.3462284996        0.8282270810
 H          2.5356649174       -0.9704253385       -2.6594096163
 H          0.3051665328       -1.7646060872       -3.3732806304
 H         -1.4527664107       -2.2010206927       -1.6978073612
 H         -0.9434933540       -1.4631335773        1.9442510352
 C         -1.5168112720       -3.3990098946        1.2774258953
 C         -1.0379287603       -4.4958566955        0.3795899616
 C         -0.3652982502       -4.2645486527        1.6971923113
 H         -0.5163786342       -4.9790935327        2.4918886046
 H          0.6188926605       -3.8206476675        1.6799905026
 H         -1.6775125303       -5.3570926600        0.2622147032
 H         -0.5055954279       -4.2267961973       -0.5188517312
 H         -2.4636092668       -3.5728700147        1.7784919825
