  62
        -98.94441927
 C          2.6469243405        1.3095899401        0.1193004190
 C          2.5807895404        0.2952583499       -0.8664432308
 C          3.6143131804       -0.7478150502       -0.7820132206
 C          4.5474878905       -0.6797282399        0.1845296394
 C          5.6224744104       -1.7009634599        0.4153580996
 C          5.1609043405       -2.7777736496        1.4072378598
 C          3.7887850604       -3.3692382097        1.0833668501
 H          3.5818196705       -4.1392250695        1.8297498303
 H          3.0264772105       -2.5953934496        1.2024732499
 C          3.6747218103       -3.9772097600       -0.3215531398
 H          4.6698649803       -4.1678867002       -0.7251599198
 H          3.1647482803       -4.9398908200       -0.2459757395
 C          2.8788375803       -3.1310945303       -1.3174443299
 H          2.6751066702       -3.7457762905       -2.1986657998
 H          1.9129843903       -2.8600525501       -0.8813074299
 C          3.5674910203       -1.8492115504       -1.8032588703
 H          4.5707026803       -2.0848857805       -2.1643634103
 H          2.9832936003       -1.4571582006       -2.6411161004
 H          5.1145520405       -2.3335715594        2.4040955497
 H          5.9069076504       -3.5742645597        1.4239820600
 H          5.8920201304       -2.1583349901       -0.5344934804
 H          6.4967176205       -1.1928098798        0.8255479594
 O          4.5872145405        0.3175230003        1.1041034491
 C          3.6323464606        1.3190325003        1.1093841889
 O          3.7682787106        2.1527914105        2.0266395287
 H         -0.4862014496        1.7325121098       -1.4654955509
 C         -0.6702254595        1.4974134900       -0.4294580409
 C          0.2832102105        1.8044133403        0.5272451390
 C          0.0336356306        1.4591491106        1.8530459691
 C         -1.1437125894        0.8290140507        2.2078564293
 C         -2.0932280495        0.5206041005        1.2482765594
 C         -1.8451106095        0.8437961502       -0.0781963006
 N         -2.7964861196        0.5297146299       -1.0622230305
 S         -3.5273600096       -0.9794291200       -1.0298190801
 O         -2.6735698996       -1.9838421399       -0.4389539199
 O         -3.9577102497       -1.2189276804       -2.3903261900
 C         -4.9661467596       -0.7208778497       -0.0107661301
 C         -5.2375480495       -1.5858515595        1.0310951502
 C         -6.3699116895       -1.3730782193        1.8021357802
 C         -7.2072376695       -0.3052163993        1.5183973899
 C         -6.9222887295        0.5528829404        0.4666477297
 C         -5.7928079896        0.3448492002       -0.3085712003
 H         -5.5375551496        0.9872354100       -1.1345972005
 H         -7.5754892695        1.3825423804        0.2491842896
 H         -8.0867619394       -0.1407379391        2.1206534000
 H         -6.5929641094       -2.0397447290        2.6196535203
 H         -4.5542412695       -2.3989203694        1.2190784503
 H         -2.5003073896        0.7652657897       -1.9986228706
 H         -3.0075303795        0.0168647806        1.5161993796
 H         -1.3249722693        0.5708859110        3.2402830594
 H          0.7851038507        1.6812261908        2.5985472290
 C          1.6127335605        2.4237351501        0.1719003588
 H          1.9165555206        3.0770261103        1.0005306486
 C          1.5956250105        3.2355662398       -1.1060343714
 C          0.9116942205        4.5687567698       -1.1188504817
 C          2.4068490205        4.4923957298       -1.1831226018
 H          2.8973181205        4.7315606395       -2.1148541319
 H          2.9729763106        4.7753127400       -0.3076588719
 H          0.3738077905        4.8648903396       -2.0064955518
 H          0.4607319506        4.9044517501       -0.1973596418
 H          1.5436734204        2.6277791896       -2.0008889113
 O          1.7142016904        0.2559447596       -1.7800429107
