  62
        -98.94084377
 C          2.5707104346       -0.2093690550        0.4061442205
 C          2.0157059921       -0.7281949698       -0.7860030126
 C          1.3831152876       -2.0597075395       -0.7035541641
 C          1.4096708575       -2.7187159864        0.4695234757
 C          0.8326885954       -4.0690457113        0.8103345007
 C         -0.6900760691       -4.0411203864        0.9886145205
 C         -1.4497220615       -3.3598252081       -0.1454468128
 H         -2.5140221296       -3.3930521821        0.1055668131
 H         -1.1692364280       -2.3054982419       -0.1858204765
 C         -1.2726412237       -3.9950797393       -1.5236269779
 H         -1.5279929131       -5.0555903241       -1.4655739277
 H         -1.9936608962       -3.5128047208       -2.1879294922
 C          0.1138176815       -3.8532646227       -2.1615615599
 H          0.8029441404       -4.6123809813       -1.7990495735
 H         -0.0033461208       -4.0284323100       -3.2347756123
 C          0.7404960633       -2.4717567509       -2.0046232784
 H          1.5184401551       -2.3439352473       -2.7665160102
 H         -0.0092623722       -1.7012107021       -2.2222946725
 H         -0.9171993560       -3.5011515979        1.9116743439
 H         -1.0398626523       -5.0698005480        1.0996832548
 H          1.1144259163       -4.8015966825        0.0597677017
 H          1.2876494540       -4.3680193265        1.7577485858
 O          2.0034901058       -2.1959097407        1.5839939440
 C          2.5482951569       -0.9280814260        1.5977431291
 O          2.9893387394       -0.5628364183        2.7090474860
 H          0.5142795763        1.0626348417        0.9814203050
 C          0.7318388285        1.9116644272        0.3495178639
 C          2.0423164735        2.1623408728       -0.0343706135
 C          2.2969733114        3.2735976654       -0.8281139012
 C          1.2566526587        4.0832004618       -1.2514125348
 C         -0.0530421943        3.7924538313       -0.9159232925
 C         -0.3155623594        2.6925865197       -0.1074103616
 N         -1.6308946375        2.3502541766        0.2651987399
 S         -2.0005682940        0.6965343571        0.2447048551
 O         -1.5471432410        0.0995685071        1.4767837880
 O         -1.5281133839        0.0977864193       -0.9813443158
 C         -3.7826139115        0.7685529916        0.2473183296
 C         -4.4827970824        0.4823013072       -0.9087327467
 C         -5.8664246944        0.5686568886       -0.8932516700
 C         -6.5216687149        0.9411986319        0.2705037558
 C         -5.8048685336        1.2250331277        1.4238779934
 C         -4.4219558795        1.1381713786        1.4157694087
 H         -3.8228771375        1.3387837314        2.2886996470
 H         -6.3176617263        1.5120311672        2.3276351860
 H         -7.5980140595        1.0086803626        0.2798056745
 H         -6.4258186324        0.3452167924       -1.7872848795
 H         -3.9290955141        0.1926288752       -1.7873751906
 H         -2.3220603376        2.8713391571       -0.2591577999
 H         -0.8650178482        4.4057976566       -1.2764964348
 H          1.4675208454        4.9405682411       -1.8725885246
 H          3.3081625152        3.4971114286       -1.1272492186
 C          3.1159332138        1.2067131740        0.4316393139
 H          3.3439565809        1.4267846473        1.4858053534
 C          4.3937690453        1.3043692418       -0.3763851906
 C          5.4704895604        2.2687041225        0.0193293901
 C          5.6682832158        0.7981498789        0.2270342791
 H          6.3667324985        0.2737889992       -0.4074964867
 H          5.6153419548        0.4088050727        1.2336347546
 H          6.0391521454        2.7542573600       -0.7593935051
 H          5.2974063999        2.8821178943        0.8906899777
 H          4.2291741363        1.1187578847       -1.4316478222
 O          2.0422156922       -0.1065010851       -1.8815281770
