  62
        -98.93958938
 C          2.2755422455       -0.8989094162       -0.6425415670
 C          3.4167432831       -0.8813881551        0.1967831814
 C          4.4156748503        0.1585043896       -0.0967556329
 C          4.2028195730        1.0206002495       -1.1062551548
 C          5.1091012252        2.1600414632       -1.4705630631
 C          4.7135674654        3.4459495048       -0.7312915688
 C          4.5153646395        3.2586352947        0.7729672767
 H          3.6500513932        2.6125698508        0.9399657072
 H          4.2700722252        4.2369363262        1.1921532779
 C          5.7320849786        2.6777510329        1.5069035268
 H          5.8915926667        3.2476561137        2.4246024635
 H          6.6255962281        2.7953938388        0.8928356572
 C          5.5859130913        1.2102782401        1.9130689109
 H          4.6428036091        1.0703382843        2.4471717206
 H          6.3950585219        0.9674694920        2.6068827728
 C          5.6457117248        0.1929153596        0.7668939921
 H          5.7269989296       -0.8031473430        1.2112920931
 H          6.5355562582        0.3728726764        0.1606259727
 H          3.7768828125        3.8148948848       -1.1560143357
 H          5.4860568830        4.1966220768       -0.9079885439
 H          6.1357052614        1.8911729206       -1.2293209404
 H          5.0302012312        2.3305959699       -2.5455756952
 O          3.0968699561        0.9743970015       -1.8933263882
 C          2.1159913455        0.0215120414       -1.6834806298
 O          1.1645600412        0.0869946655       -2.4897645642
 H         -1.4202570982       -1.1136652143       -0.7244710525
 C         -1.0988144663       -1.1326868644        0.3064343396
 C          0.2018150653       -1.5032373513        0.6182769058
 C          0.5996273102       -1.4995928258        1.9513404706
 C         -0.2886418713       -1.1261938092        2.9429365612
 C         -1.5832433231       -0.7528976156        2.6286075051
 C         -1.9928787510       -0.7588782358        1.3000208744
 N         -3.3186252065       -0.4305937102        0.9659451244
 S         -3.6399712109        0.3652917191       -0.4873369309
 O         -3.5704224358       -0.5887341127       -1.5651634502
 O         -2.8099719178        1.5437725001       -0.6054748654
 C         -5.3405972323        0.8267131914       -0.2117575147
 C         -6.3131603902       -0.1477677866       -0.3361584253
 C         -7.6352446304        0.1906217027       -0.0963936933
 C         -7.9617395595        1.4905093702        0.2613894653
 C         -6.9755120106        2.4580652545        0.3795639987
 C         -5.6505812471        2.1257075221        0.1428513407
 H         -4.8509335105        2.8454059642        0.2154271712
 H         -7.2324097834        3.4683853459        0.6543627050
 H         -8.9916774934        1.7517690372        0.4464343849
 H         -8.4049127223       -0.5583453629       -0.1901195881
 H         -6.0125653196       -1.1410827938       -0.6256637412
 H         -3.8119469753        0.0076213835        1.7325132550
 H         -2.2740669819       -0.4612729685        3.4052491265
 H          0.0322498812       -1.1214974032        3.9737830481
 H          1.6137372439       -1.7733294004        2.1975754229
 C          1.1457341943       -1.9060105415       -0.4901827514
 H          0.5822378853       -1.8588380710       -1.4326326080
 C          1.6329756318       -3.3295559142       -0.2975838331
 C          0.6952457957       -4.4576667447       -0.5997848194
 C          1.8644751003       -4.1924265902       -1.4992566365
 H          2.6951132985       -4.8819273449       -1.4856698850
 H          1.6729579285       -3.7582619862       -2.4703254897
 H         -0.2901456034       -4.2030179405       -0.9615304746
 H          0.7206086188       -5.3319690968        0.0321315888
 H          2.3122987095       -3.4451302200        0.5359715257
 O          3.6188706157       -1.6833734557        1.1461506378
