  62
        -98.93719296
 C         -1.0329197761       -1.7670216072        0.4902176322
 C         -1.3964289163       -0.5159467804        1.0488632873
 C         -2.6888626295        0.0400380276        0.6207292947
 C         -3.4405259437       -0.6551573723       -0.2522028037
 C         -4.7501316607       -0.2043120042       -0.8345578710
 C         -4.5045019802        0.8293138884       -1.9519689130
 C         -5.0319171637        2.2293070085       -1.6377397807
 H         -4.6136716046        2.9116793404       -2.3806045655
 H         -6.1171702722        2.2352499007       -1.7595998106
 C         -4.7139479808        2.7589878215       -0.2365554716
 H         -4.9179169477        3.8317282964       -0.2495503568
 H         -5.4034822733        2.3210383011        0.4865404799
 C         -3.2772823897        2.5360670364        0.2540955191
 H         -2.5956945535        2.4124354781       -0.5873047445
 H         -2.9637801849        3.4328077332        0.7901086180
 C         -3.1020620873        1.3540222803        1.2249158989
 H         -4.0202341583        1.2164027156        1.8029340877
 H         -2.3015044555        1.5976994704        1.9295137344
 H         -3.4305263447        0.8763831593       -2.1443510884
 H         -4.9731641984        0.4853738693       -2.8752958305
 H         -5.2458655210       -1.0877874635       -1.2374435916
 H         -5.3749797551        0.2183217515       -0.0510389326
 O         -3.0504709068       -1.8446703663       -0.7780523496
 C         -1.8328195216       -2.4212718915       -0.4461438012
 O         -1.6038202926       -3.4918843428       -1.0394518111
 O         -0.6737253944        0.1048009612        1.8733204331
 C          0.3162654089       -2.3524872774        0.8772072734
 C          1.2579985030       -2.1206658835       -0.2785304727
 C          1.6147013049       -3.1064615779       -1.1894994246
 C          2.4314406535       -2.7976391667       -2.2634223686
 C          2.9201670886       -1.5155827443       -2.4386260517
 C          2.5708052476       -0.5226168597       -1.5299035363
 C          1.7397450565       -0.8303906729       -0.4655442629
 H          1.4566278097       -0.0564003325        0.2327036779
 N          3.0339330202        0.7947443689       -1.6757668730
 S          3.5772607565        1.6102431094       -0.3146103273
 O          4.4470030636        2.6424863590       -0.8409040790
 O          4.1808780893        0.7024540567        0.6337524854
 C          2.1389533940        2.3860199109        0.3869518948
 C          1.3186826199        3.1285261925       -0.4389685969
 C          0.2311644764        3.7827107902        0.1155255427
 C         -0.0114774938        3.6885102267        1.4774829219
 C          0.8189715496        2.9364733014        2.2916129466
 C          1.9073045950        2.2786843162        1.7429554874
 H          2.5731142512        1.6743569742        2.3385580513
 H          0.6204299614        2.8515627955        3.3477110686
 H         -0.8554581078        4.2030853546        1.9095146501
 H         -0.4241670166        4.3637224405       -0.5136979495
 H          1.5427473435        3.1806170740       -1.4917475619
 H          3.6539957087        0.9393557228       -2.4598529413
 H          3.5639779767       -1.2812329700       -3.2731202935
 H          2.6973176440       -3.5689968332       -2.9705470077
 H          1.2366866590       -4.1081364467       -1.0687239727
 H          0.6678083397       -1.7401616286        1.7194139042
 C          0.2311279398       -3.7934951933        1.3284493046
 C          1.3877036577       -4.3922768768        2.0700409273
 C          0.1082607030       -4.0946822839        2.7908676634
 H         -0.5167101249       -4.9208927572        3.0949857281
 H          0.0899512093       -3.2587437321        3.4748393160
 H          1.6443604396       -5.4234919642        1.8816178096
 H          2.2388071694       -3.7554540474        2.2609494829
 H         -0.3185244265       -4.4285213001        0.6452586971
