  62
        -98.94703828
 C          1.2505884237        0.7643713367        0.6585326113
 C          2.0946553546        0.7243499726       -0.4768081180
 C          2.8036157068       -0.5417152042       -0.6998443020
 C          2.5660425266       -1.5939966629        0.1031054940
 C          3.1816841230       -2.9613544339       -0.0222675648
 C          4.5662671763       -3.0878151924        0.6284260843
 C          5.7025394459       -2.3859732297       -0.1164099933
 H          6.6380668009       -2.7359290534        0.3243889739
 H          5.6973458312       -2.6988811335       -1.1609745606
 C          5.6610751795       -0.8536762273       -0.0354184123
 H          5.0029786931       -0.5501548150        0.7818308706
 H          6.6584340226       -0.4741795280        0.1973979221
 C          5.2020736580       -0.1637146427       -1.3200046858
 H          5.9241519384       -0.3541244779       -2.1170538956
 H          5.1748909922        0.9138588237       -1.1398333602
 C          3.8126572520       -0.5964711755       -1.8069478648
 H          3.4869776387        0.0986834256       -2.5849825279
 H          3.8565004906       -1.5989617864       -2.2328716816
 H          4.5079310243       -2.7039201663        1.6494720948
 H          4.8016544243       -4.1530346462        0.6863383105
 H          2.4998459207       -3.6547461975        0.4753176198
 H          3.2437208350       -3.2375236626       -1.0755069439
 O          1.6933702483       -1.5367128476        1.1434762083
 C          1.0242460208       -0.3620948086        1.4482220526
 O          0.2621849481       -0.4499075965        2.4335093551
 H         -1.3416625896        0.3318862940        0.1114554794
 C         -1.3688540181        1.2361800869       -0.4761345588
 C         -0.5010612447        2.2727788224       -0.1528056071
 C         -0.5434293439        3.4374326885       -0.9052380023
 C         -1.4089875364        3.5355648064       -1.9821703274
 C         -2.2335191932        2.4828962769       -2.3320518171
 C         -2.2123300329        1.3178459305       -1.5699980906
 N         -3.0524666574        0.2442817249       -1.8840292712
 S         -2.7944113129       -1.3162735477       -1.3515998036
 O         -1.3924547750       -1.6585657181       -1.2851762424
 O         -3.6004284233       -2.1210657040       -2.2466517858
 C         -3.5522100476       -1.3270132212        0.2592280943
 C         -4.9107062907       -1.0783303170        0.3168577723
 C         -5.5411316964       -1.0703119470        1.5494789839
 C         -4.8058782454       -1.3087762311        2.7015814312
 C         -3.4452364067       -1.5600291061        2.6273168828
 C         -2.8092226083       -1.5726482310        1.3950100507
 H         -1.7480150075       -1.7547044616        1.3150899704
 H         -2.8632658186       -1.7385484411        3.5174452292
 H         -5.2944020036       -1.2993928637        3.6631979707
 H         -6.5998980639       -0.8767208979        1.6104421389
 H         -5.4447036798       -0.9057709392       -0.6026629222
 H         -3.5177711628        0.2919910614       -2.7770437116
 H         -2.8858851611        2.5542109925       -3.1887712294
 H         -1.4279286123        4.4411656665       -2.5694872091
 H          0.1120567759        4.2580185590       -0.6651135066
 C          0.4631978590        2.0244098850        0.9824085904
 H         -0.1214532509        1.7951200115        1.8849577563
 C          1.3875653573        3.1855975338        1.2753855823
 C          0.9070038862        4.3294266119        2.1154717828
 C          1.9108458314        3.3636884021        2.6678086871
 H          2.9306608124        3.6940505146        2.7964876229
 H          1.5844758453        2.6554849688        3.4157269568
 H          1.2389250405        5.3263459592        1.8683294585
 H         -0.1029942148        4.2808883053        2.4931625916
 H          2.0649597407        3.3982132380        0.4569420610
 O          2.2547928380        1.6920459944       -1.2662465896
