  62
        -98.94438306
 C          2.3491108053        1.1420758395        0.2515605255
 C          2.3483241935       -0.1240323485       -0.3828770182
 C          3.3197467194       -1.0967427527        0.1352971804
 C          4.1132719967       -0.7699614532        1.1709358461
 C          5.1334382324       -1.6621801513        1.8244862030
 C          6.4902899527       -1.6914993990        1.1074595415
 C          6.5099661882       -2.4526851950       -0.2186895707
 H          6.0882608879       -3.4474940463       -0.0716570267
 H          7.5573664347       -2.5809152933       -0.4988493998
 C          5.7758772189       -1.7448819901       -1.3660498905
 H          6.3940151034       -1.7726031992       -2.2661672860
 H          5.6287950959       -0.6930290737       -1.1106230201
 C          4.4231647872       -2.3588649395       -1.7272234520
 H          4.5697515439       -3.3707006555       -2.1118158653
 H          3.9746994398       -1.7583461999       -2.5227840471
 C          3.4270254548       -2.4195472434       -0.5617622980
 H          3.7186916660       -3.1985073149        0.1425423881
 H          2.4400238362       -2.6648001762       -0.9628045507
 H          7.2050306208       -2.1655334497        1.7840239119
 H          6.8201894499       -0.6633565369        0.9423322218
 H          4.7380455372       -2.6755669636        1.9004818452
 H          5.2854014912       -1.2718097977        2.8330691853
 O          4.0600320329        0.4466856711        1.7749247761
 C          3.1907969215        1.4274239868        1.3298999923
 O          3.2586355793        2.4976124232        1.9666569766
 O          1.5880494596       -0.4391013329       -1.3364659841
 C          1.3933070359        2.2455140767       -0.1768708223
 C         -0.0034576008        1.8218614564        0.2070331787
 C         -0.4334033750        2.0122370033        1.5175088667
 C         -1.6783299417        1.5695172117        1.9224560404
 C         -2.5161626284        0.9174784250        1.0337059139
 C         -2.0888116640        0.7072791107       -0.2696586371
 C         -0.8476700633        1.1755632568       -0.6815281166
 H         -0.5238518024        0.9937593864       -1.6938311108
 N         -2.9250415347        0.0323665892       -1.1760687574
 S         -3.6376532431       -1.4023714998       -0.6736161631
 O         -2.8445388692       -2.0794905244        0.3263453569
 O         -3.9059925058       -2.1382493800       -1.8902807502
 C         -5.1871810915       -0.8741558065        0.0299909339
 C         -6.0033095441       -0.0570521869       -0.7277714209
 C         -7.2163732480        0.3533081156       -0.1985315879
 C         -7.5929076021       -0.0604186945        1.0706719591
 C         -6.7643834232       -0.8838529060        1.8173355225
 C         -5.5488444293       -1.2969148177        1.2940524965
 H         -4.8690200554       -1.9312467738        1.8406292034
 H         -7.0583251589       -1.2049534691        2.8037760692
 H         -8.5373753864        0.2608338528        1.4806294506
 H         -7.8632016938        0.9939472332       -0.7760077723
 H         -5.6750079356        0.2401478713       -1.7096339539
 H         -2.5086990011       -0.0837823778       -2.0892914317
 H         -3.4825437643        0.5570104193        1.3463264239
 H         -1.9997659898        1.7282490958        2.9406585502
 H          0.2315259266        2.4989223006        2.2178059757
 H          1.6596747934        3.1239782578        0.4254761223
 C          1.5511365089        2.5943558698       -1.6419635959
 C          0.9544461964        3.8675379927       -2.1596008990
 C          2.4413651569        3.7350317535       -2.0294557327
 H          3.0329919626        3.6435953192       -2.9281125159
 H          2.9362003010        4.2746084558       -1.2350786117
 H          0.5233830659        3.8710277506       -3.1490463735
 H          0.4381741432        4.4978664738       -1.4515749586
 H          1.5481431105        1.7299153355       -2.2939998380
