  62
        -98.93797181
 C          2.0285316572        0.9441219285       -0.3666948390
 C          2.8118077479        0.5857042607        0.7611167130
 C          3.3770957519       -0.7661406754        0.7657026009
 C          3.0955223991       -1.6034548024       -0.2484898687
 C          3.5603883789       -3.0292557053       -0.3754849315
 C          4.9675967477       -3.1769048450       -0.9704444336
 C          6.1119906103       -2.7671594823       -0.0424531199
 H          6.0018961985       -3.2782413687        0.9143435866
 H          7.0372673209       -3.1239783311       -0.4990221712
 C          6.2277774534       -1.2542431678        0.1900504933
 H          7.2714068780       -0.9487431065        0.0871059000
 H          5.6613481427       -0.7236743394       -0.5788288187
 C          5.7518725811       -0.7853949160        1.5650884038
 H          6.3947974007       -1.2091566964        2.3395933049
 H          5.8449148559        0.3026826800        1.6069289972
 C          4.2959618052       -1.1475733275        1.8871315164
 H          4.2112327061       -2.2127384117        2.1017610760
 H          3.9888307326       -0.5851374717        2.7721545962
 H          5.0184294103       -2.5937244044       -1.8928522855
 H          5.1003920531       -4.2286182491       -1.2345168214
 H          3.5231722283       -3.5134821458        0.6008758894
 H          2.8494495772       -3.5280319254       -1.0379799993
 O          2.3173475629       -1.2373052788       -1.2995117088
 C          1.7712208086        0.0408722816       -1.3995861001
 O          1.1171076954        0.2133669182       -2.4440432066
 H         -0.5714459177        0.5201912548       -0.2349207915
 C         -0.7365625058        1.3468108578        0.4409670924
 C          0.1989651710        2.3678880450        0.5254000307
 C         -0.0296931404        3.4143418287        1.4115643872
 C         -1.1776362333        3.4435061094        2.1830736685
 C         -2.1184579934        2.4356145427        2.0805151653
 C         -1.8908773553        1.3746431794        1.2097536916
 N         -2.8080377281        0.3159365558        1.1250994005
 S         -2.9493414392       -0.5355665875       -0.3255037431
 O         -1.9087930843       -1.5316026024       -0.3791349516
 O         -3.0374004114        0.3892863102       -1.4322146641
 C         -4.5260771277       -1.3276147393       -0.0651920116
 C         -4.5733182783       -2.4848993867        0.6889840897
 C         -5.8012556132       -3.0839374225        0.9211739199
 C         -6.9554724732       -2.5188047396        0.3992224488
 C         -6.8924498524       -1.3586187230       -0.3577735936
 C         -5.6675254962       -0.7537801933       -0.5925875528
 H         -5.5677895281        0.1432615041       -1.1823228740
 H         -7.7905413674       -0.9236815289       -0.7656597612
 H         -7.9095969514       -2.9875767025        0.5809756609
 H         -5.8532498391       -3.9877310387        1.5065126644
 H         -3.6487357058       -2.8912659660        1.0649145426
 H         -3.7085928986        0.5360802429        1.5278360670
 H         -3.0165734481        2.4578880169        2.6784853117
 H         -1.3443084663        4.2612013320        2.8675539333
 H          0.7067469767        4.1991253719        1.5022046574
 C          1.4369899722        2.3419812451       -0.3365801899
 H          2.1939920453        2.9657984847        0.1678743796
 C          1.1935803448        2.9497292642       -1.7090977484
 C         -0.1500208386        2.9800016488       -2.3667863502
 C          0.4548215969        4.2483383916       -1.8485481297
 H          0.8197149092        4.9727848309       -2.5607657770
 H          0.0234877302        4.6781017712       -0.9574367038
 H         -0.1853920049        2.8108698101       -3.4322807969
 H         -0.9878863693        2.5438454961       -1.8433613088
 H          2.0417379602        2.7984974087       -2.3693775810
 O          3.0310933900        1.3726416317        1.7215923736
