  62
        -98.93187601
 C         -2.3826070422        0.8016727305       -0.7869560425
 C         -3.4406229917        0.8802103388        0.1472407377
 C         -4.5608612321       -0.0697808523       -0.0310863457
 C         -4.5090647303       -0.9626076679       -1.0360674574
 C         -5.5025405203       -2.0370898650       -1.3922327181
 C         -5.4447505838       -3.2431911648       -0.4424663492
 C         -5.3775445853       -2.8880520686        1.0401376820
 H         -5.2504826393       -3.8190074790        1.5990462745
 H         -4.4909051270       -2.2781403695        1.2228077006
 C         -6.6090124219       -2.1747261740        1.5933336704
 H         -7.4913295004       -2.7945402585        1.4192256173
 H         -6.4733440932       -2.0873464032        2.6743872663
 C         -6.8772951627       -0.7743244780        1.0366336557
 H         -7.5999058781       -0.2930934226        1.7021431461
 H         -7.3452460168       -0.8206430607        0.0569179519
 C         -5.6535019382        0.1346979016        0.9910250505
 H         -5.9916070789        1.1686674601        0.8525409015
 H         -5.1610624552        0.1238835730        1.9701406889
 H         -6.3179726097       -3.8705231515       -0.6298287002
 H         -4.5524106096       -3.8246305167       -0.6870163805
 H         -6.5054853815       -1.6222906072       -1.4279184988
 H         -5.2469198270       -2.3755666264       -2.3988582647
 O         -3.4511607733       -1.0221330981       -1.8957320502
 C         -2.3815316070       -0.1590840718       -1.8016199890
 O         -1.5015105212       -0.3340936778       -2.6697436069
 O         -3.4835896810        1.7012355935        1.1014142193
 C         -1.1722755474        1.7224178608       -0.7561561612
 C         -0.1795373934        1.2443085629        0.2770888268
 C         -0.3990972790        1.4129041492        1.6397524433
 C          0.5296927333        0.9573570862        2.5580001295
 C          1.6893533817        0.3270505678        2.1425246459
 C          1.9154814856        0.1481641941        0.7843531927
 C          0.9847940919        0.6124559267       -0.1366982813
 H          1.1552010114        0.4624525284       -1.1949029531
 N          3.0797625727       -0.5145994179        0.3509234276
 S          4.5368579659       -0.0560052373        1.0753939964
 O          4.6456228441       -0.7267660795        2.3464306441
 O          4.6391542607        1.3859395896        1.1121459209
 C          5.7206470025       -0.7351965127       -0.0696623751
 C          6.0657798468       -2.0686166402        0.0421398876
 C          6.9700868904       -2.6036807885       -0.8612978347
 C          7.5100878211       -1.8017714145       -1.8559118928
 C          7.1546259467       -0.4649621281       -1.9547533710
 C          6.2499960972        0.0764397517       -1.0550172286
 H          5.9529662846        1.1125421930       -1.0883776625
 H          7.5784442112        0.1565146088       -2.7271100377
 H          8.2148797068       -2.2203296204       -2.5569136799
 H          7.2512792882       -3.6417251509       -0.7865575250
 H          5.6277140373       -2.6506241061        0.8360309225
 H          3.1626138036       -0.5095842527       -0.6568987375
 H          2.4225431470       -0.0242092253        2.8506633603
 H          0.3492441937        1.0942940164        3.6138823327
 H         -1.3116426164        1.8823788628        1.9720635336
 H         -0.7008043626        1.6147876695       -1.7424615102
 C         -1.5343537516        3.1810376529       -0.5603265428
 C         -0.5356884530        4.2300506846       -0.9426793950
 C         -1.7762933108        4.0413458997       -1.7622043410
 H         -2.5498041497        4.7926811165       -1.7099705760
 H         -1.6803407700        3.5811791567       -2.7351462969
 H         -0.4540780030        5.1122298736       -0.3265572650
 H          0.4037427110        3.8978159821       -1.3587541959
 H         -2.1492910148        3.3631791736        0.3102480551
