  62
        -98.94566036
 C          1.1682653184        1.4372409658        0.7438226164
 C          2.0485932707        1.3744158510       -0.3628515741
 C          2.9995430551        0.2537101019       -0.3595117176
 C          2.9628201742       -0.6415233952        0.6441743493
 C          3.8366225326       -1.8582130804        0.7353393277
 C          3.1775497474       -3.0735384587        0.0686636131
 C          2.6239094288       -2.7945143902       -1.3281359720
 H          2.2067958008       -3.7305954034       -1.7044120272
 H          1.7977628577       -2.0836058590       -1.2498090095
 C          3.6605319517       -2.2636747829       -2.3280713896
 H          4.6672482046       -2.4792662618       -1.9678572867
 H          3.5357044350       -2.7910069029       -3.2761441023
 C          3.5426227781       -0.7693905714       -2.6320575653
 H          2.5118168947       -0.5291238439       -2.9052036642
 H          4.1708171178       -0.5475879540       -3.4990656407
 C          3.9722773786        0.1745148576       -1.5022427438
 H          4.9657137009       -0.1052300116       -1.1456974261
 H          4.0277444539        1.1848838466       -1.9180032984
 H          3.9130709624       -3.8781848126        0.0163997769
 H          2.3501757989       -3.4022570198        0.6988376425
 H          4.7935095642       -1.6444208520        0.2626984262
 H          4.0057183050       -2.0810660020        1.7900761071
 O          2.0877224140       -0.5592991010        1.6794898097
 C          1.1707216752        0.4762380715        1.7547874010
 O          0.4242905389        0.4320165610        2.7534802149
 H         -1.2583260302        0.3529860306        0.2757823708
 C         -1.4641392634        1.1221815788       -0.4552427883
 C         -0.8379197350        2.3572743064       -0.3339916095
 C         -1.1119918720        3.3378111390       -1.2770531482
 C         -1.9816422108        3.0754999591       -2.3221416004
 C         -2.6088219380        1.8485729058       -2.4339095732
 C         -2.3507759439        0.8637138068       -1.4863105498
 N         -2.9628690691       -0.3975734857       -1.5600515652
 S         -3.5412900171       -1.1002139514       -0.1519644644
 O         -4.5753800426       -2.0077828491       -0.6047669775
 O         -3.9528846995       -0.0982511411        0.8031173688
 C         -2.1942683285       -2.0699090217        0.4892639150
 C         -1.7708656477       -1.8769069612        1.7884853768
 C         -0.7760468639       -2.6951117096        2.2993858591
 C         -0.2307574715       -3.6919649545        1.5065588104
 C         -0.6585143975       -3.8667522602        0.1983915571
 C         -1.6509483261       -3.0504268014       -0.3179866128
 H         -2.0187277333       -3.1629727301       -1.3243350039
 H         -0.2240779351       -4.6390047918       -0.4159113287
 H          0.5277962084       -4.3407700625        1.9167170939
 H         -0.4294272751       -2.5386523094        3.3082103046
 H         -2.2126778168       -1.0875398587        2.3762493616
 H         -3.6175454740       -0.5052610382       -2.3215676604
 H         -3.2914100620        1.6492502008       -3.2462108736
 H         -2.1791108424        3.8416358774       -3.0566292091
 H         -0.6379597905        4.3023766644       -1.2020742209
 C          0.1209956033        2.5350732216        0.8189031051
 H         -0.4393764732        2.3604520672        1.7492511664
 C          0.7636222366        3.9032026976        0.8852739704
 C          0.0163255809        5.0503701802        1.4938898090
 C          1.1794917646        4.4443190719        2.2187101712
 H          2.0985239951        5.0072204823        2.2829351444
 H          0.9804857993        3.8333794644        3.0874511237
 H          0.1375384939        6.0328850047        1.0634293695
 H         -0.9754512586        4.8548954670        1.8736142817
 H          1.4126167513        4.1035326090        0.0412446979
 O          2.0481825248        2.2092162288       -1.3047602922
