  62
        -98.93521859
 C          2.3156239694        1.1017832897       -0.5407156507
 C          3.3397653494        0.6033877297        0.3034890393
 C          3.8558486591       -0.7500556005        0.0273502995
 C          3.3368571988       -1.4370155406       -1.0068685303
 C          3.6577525785       -2.8375765408       -1.4562587301
 C          3.0231491084       -3.9048424605       -0.5508427398
 C          3.1658965487       -3.6428760302        0.9461360302
 H          2.7017465889       -2.6842310300        1.1875393000
 H          2.5971785086       -4.4141507300        1.4726730104
 C          4.5964509387       -3.6691397803        1.4799527600
 H          4.5361902689       -3.5699643801        2.5667543600
 H          5.0419173785       -4.6416945905        1.2596086601
 C          5.5300229789       -2.5753822206        0.9556826196
 H          5.8880960587       -2.8088432309       -0.0433572704
 H          6.4097607990       -2.5613751407        1.6055247495
 C          4.9431174491       -1.1678729205        0.9877462394
 H          5.7564194293       -0.4466959607        0.8426233792
 H          4.5539259593       -0.9634649202        1.9917667194
 H          3.4627997982       -4.8727560906       -0.7975673996
 H          1.9546976884       -3.9497524703       -0.7775021596
 H          3.2458414184       -2.9460410109       -2.4620116100
 H          4.7329756885       -2.9743172110       -1.5207356502
 O          2.3589179088       -0.9168090806       -1.7994113203
 C          1.8131724991        0.3357393396       -1.5914908805
 O          0.9165067491        0.6259991296       -2.4108411804
 O          3.8133831896        1.2678556898        1.2647924791
 C          1.7737512097        2.4841522299       -0.2124307409
 C          0.4970152398        2.3548399103        0.5840052193
 C          0.4372917800        2.7536666805        1.9139693092
 C         -0.7212985799        2.5796979909        2.6515808594
 C         -1.8405744801        1.9992447610        2.0819089596
 C         -1.7866998704        1.5921914307        0.7556696597
 C         -0.6316740704        1.7830874504        0.0136080895
 H         -0.5938625906        1.4480188001       -1.0126691204
 N         -2.9169829605        0.9674862008        0.1681522300
 S         -3.2049816308       -0.5938680490        0.7574632203
 O         -3.4299057606       -0.5086733087        2.1777434703
 O         -2.1524215610       -1.4942918793        0.3327940804
 C         -4.7288009110       -0.9896049989       -0.0763063794
 C         -5.9163334008       -0.5321389085        0.4614251707
 C         -7.1010926909       -0.8065215185       -0.2025538891
 C         -7.0783436612       -1.5279810687       -1.3869531290
 C         -5.8782802214       -1.9803041590       -1.9142121590
 C         -4.6894631712       -1.7079998691       -1.2554303692
 H         -3.7340088213       -2.0462572894       -1.6246715293
 H         -5.8627325616       -2.5424711192       -2.8341252089
 H         -8.0015017213       -1.7412592186       -1.9022205688
 H         -8.0364965308       -0.4580234682        0.2043523309
 H         -5.8846298406        0.0172473616        1.3874471806
 H         -2.7855609907        0.8836507606       -0.8334717600
 H         -2.7387918401        1.8319525113        2.6526900598
 H         -0.7509019197        2.8927904811        3.6842980593
 H          1.3157505902        3.1814314705        2.3752331490
 H          2.5297329799        2.9415135598        0.4398047789
 C          1.5864674897        3.3706438596       -1.4270356711
 C          1.5230899600        4.8554595397       -1.2367266014
 C          2.7218282998        4.2333496393       -1.8861063514
 H          2.8664551697        4.3700903191       -2.9471981115
 H          3.6424821999        4.1888525493       -1.3227134815
 H          0.8421390400        5.4240913897       -1.8509422614
 H          1.6312946202        5.2345672199       -0.2318375315
 H          0.9580383295        2.9317984996       -2.1906531409
