  62
        -98.93652320
 C         -1.2225088538       -0.5799958644        0.5890946198
 C         -2.0635932829       -0.6111500482       -0.5494602079
 C         -3.0720940344        0.4551038452       -0.6186042510
 C         -3.0960876231        1.4194323436        0.3185259816
 C         -4.0483365692        2.5837640349        0.3668246021
 C         -5.4017044310        2.2582562228        1.0141314046
 C         -6.3333568019        1.3853477851        0.1721618013
 H         -7.3168311129        1.4189587874        0.6451274594
 H         -6.4353413895        1.8205641240       -0.8224053815
 C         -5.8923308050       -0.0801725404        0.0527591035
 H         -5.1586068277       -0.3036489651        0.8305759805
 H         -6.7505775328       -0.7336379431        0.2242906502
 C         -5.3009111719       -0.4553520921       -1.3060852850
 H         -4.9868204669       -1.5012950368       -1.2663721368
 H         -6.0678492195       -0.3621490821       -2.0780499276
 C         -4.0869459760        0.3871248761       -1.7195380119
 H         -3.6107632486       -0.0923864310       -2.5783403534
 H         -4.4034780968        1.3888542522       -2.0098220514
 H         -5.9053899997        3.2080010205        1.2085008507
 H         -5.2205030928        1.7752822342        1.9771747948
 H         -3.5588392118        3.3602334616        0.9591204319
 H         -4.2075711608        2.9680364013       -0.6412549016
 O         -2.2131231132        1.4583274219        1.3530769921
 C         -1.2680635101        0.4589608594        1.5173993253
 O         -0.5299699998        0.6068812593        2.5147857480
 H          0.9846277750        0.4135606652       -0.1790354362
 C          1.2711380555       -0.4547904814       -0.7522371053
 C          0.7213123888       -1.6929510371       -0.4259840166
 C          1.0740454293       -2.7775967829       -1.2175893211
 C          1.9411396299       -2.6161966666       -2.2873910238
 C          2.4993162004       -1.3886381706       -2.5857166827
 C          2.1516022434       -0.2911586839       -1.8056541676
 N          2.6824087550        0.9822076106       -2.0584413898
 S          2.9525806621        2.0350391879       -0.7889538114
 O          1.7120679027        2.6242082520       -0.3493698662
 O          3.9388252306        2.9616528008       -1.3049857043
 C          3.6867481376        1.0351364554        0.4943099269
 C          4.9414924673        0.5126084969        0.2436367700
 C          5.5338543882       -0.3026427954        1.1931639840
 C          4.8622217124       -0.5852260280        2.3732130809
 C          3.6075987837       -0.0479653450        2.6130397689
 C          3.0100860720        0.7719889781        1.6675782923
 H          2.0301314902        1.1944001807        1.8324969534
 H          3.0785033203       -0.2634383431        3.5278709125
 H          5.3181749366       -1.2253665808        3.1118306202
 H          6.5121859352       -0.7168055716        1.0105503148
 H          5.4359579402        0.7642587585       -0.6804333656
 H          3.4164950391        1.0149953487       -2.7498458744
 H          3.1804893003       -1.2733735475       -3.4143946186
 H          2.1914557147       -3.4728216019       -2.8947198025
 H          0.6705132291       -3.7566380836       -1.0366183317
 C         -0.1714407805       -1.6639772783        0.7938383291
 H          0.4618749119       -1.2966895688        1.6197276472
 C         -0.8653228060       -2.9083260510        1.3267725072
 C         -1.4741688588       -3.9921776890        0.4945653498
 C         -0.2823399837       -4.2895957979        1.3569226660
 H         -0.4437979823       -4.8769095242        2.2490671748
 H          0.6779549420       -4.4582318546        0.8991474067
 H         -2.4356485032       -4.3778856146        0.8025246239
 H         -1.3686123990       -3.9244547901       -0.5755420377
 H         -1.4346050434       -2.6287459721        2.2119659179
 O         -1.9802311609       -1.4725355363       -1.4601789093
