  62
        -98.94285426
 C         -1.5688916239       -1.4585322338        0.1184135991
 C         -2.7039378624       -0.9790894116        0.8184663548
 C         -3.3598064334        0.2054272062        0.2525888974
 C         -2.8488443402        0.7874671370       -0.8474427866
 C         -3.4084823994        1.9946374693       -1.5510054957
 C         -2.9893360948        3.3352882460       -0.9319483552
 C         -3.6507353822        3.6735961570        0.4044957904
 H         -3.4415858897        4.7255293585        0.6091798753
 H         -4.7322688059        3.5694770964        0.3130444654
 C         -3.1481995066        2.8324677738        1.5863731498
 H         -2.2046475070        2.3518119475        1.3160448860
 H         -2.9414479246        3.4851941303        2.4377469663
 C         -4.1293266571        1.7614281800        2.0627667414
 H         -3.6585792275        1.1991416801        2.8735228785
 H         -5.0269294684        2.2383550991        2.4626818392
 C         -4.5485639056        0.7636492436        0.9755084076
 H         -5.2323458623        1.2391845754        0.2724861033
 H         -5.0660073132       -0.0692830952        1.4582529189
 H         -1.9045082937        3.3411103384       -0.8044955484
 H         -3.2459311515        4.1193167844       -1.6480845150
 H         -4.4968707943        1.9312447894       -1.5758720763
 H         -3.0357792676        1.9564144370       -2.5767276541
 O         -1.7412586408        0.3149727579       -1.4753075074
 C         -1.0655477650       -0.8081193579       -1.0110845229
 O         -0.0623823344       -1.1037956253       -1.6818303252
 O         -3.1453777558       -1.5129688955        1.8716168227
 C         -0.8378500969       -2.6596514062        0.6922150512
 C          0.6443552824       -2.3801359683        0.7206257194
 C          1.6033982096       -3.2077365464        0.1538790887
 C          2.9422126639       -2.8554364101        0.1869676325
 C          3.3531370818       -1.6743678315        0.7756015565
 C          2.4006692507       -0.8386458191        1.3450256175
 C          1.0650040426       -1.2027586343        1.3284859136
 H          0.3257062173       -0.5465190217        1.7728136001
 N          2.8011301699        0.3830158777        1.9258899814
 S          3.6347703653        1.4465772405        0.9326105649
 O          4.9781796388        0.9580439448        0.7489187730
 O          3.5108692205        2.7357271085        1.5767305928
 C          2.7639565581        1.4443629664       -0.6218773703
 C          1.6350057091        2.2296328375       -0.7429360315
 C          0.9301342240        2.2084520975       -1.9343693282
 C          1.3534714459        1.3941028934       -2.9722834167
 C          2.4857819264        0.6088920421       -2.8332074477
 C          3.2013669253        0.6324660141       -1.6478586960
 H          4.0895841253        0.0398067137       -1.5032361674
 H          2.8060037785       -0.0299924858       -3.6400566961
 H          0.7908367161        1.3663643507       -3.8918345170
 H          0.0457693796        2.8151124521       -2.0498273373
 H          1.3377699993        2.8510111363        0.0880205442
 H          2.0410618148        0.8732242860        2.3761054454
 H          4.3890871092       -1.3763916500        0.7924604078
 H          3.6759393561       -3.5072207763       -0.2624640229
 H          1.3035495672       -4.1179348815       -0.3382887149
 H         -1.1918062985       -2.7227117415        1.7355310371
 C         -1.1939410709       -3.9854271512        0.0368313568
 C         -2.5040881492       -4.1734009315       -0.6663912971
 C         -1.2288284143       -4.1541882133       -1.4516140621
 H         -0.8730932727       -5.0842164545       -1.8704240048
 H         -1.0067027379       -3.2885407508       -2.0551801958
 H         -3.0211744985       -5.1132121773       -0.5423916201
 H         -3.1627768173       -3.3200339121       -0.7376847881
 H         -0.8382399372       -4.8324736534        0.6155160457
