  62
        -98.94675154
 C          1.5996330370        1.4761649973       -0.0144801949
 C          2.4359815370        0.8784184225        0.9573455499
 C          3.1240606885       -0.3479171193        0.5406943562
 C          2.9353802776       -0.8303871059       -0.7016178313
 C          3.6237826422       -2.0303847777       -1.2944689012
 C          2.9623820334       -3.3731868160       -0.9582068681
 C          3.1254833446       -3.8376582181        0.4889533816
 H          2.7967129626       -4.8777330435        0.5325550495
 H          4.1811130581       -3.8200954139        0.7616608668
 C          2.3155236593       -3.0200650834        1.5048978075
 H          1.5484690860       -2.4446905328        0.9801839049
 H          1.7962212792       -3.6957575242        2.1882884578
 C          3.1556239235       -2.0694728973        2.3584397100
 H          3.8380073160       -2.6470598268        2.9861157148
 H          2.4846221672       -1.5129227054        3.0183455297
 C          3.9763708932       -1.0548838474        1.5508327965
 H          4.8146767536       -1.5525023183        1.0637305706
 H          4.3684862225       -0.3035398533        2.2408617123
 H          3.4060350854       -4.1274326487       -1.6120066050
 H          1.9002064578       -3.3023971643       -1.1947393682
 H          3.5978882905       -1.8969647967       -2.3780020308
 H          4.6658517461       -2.0450784833       -0.9730055853
 O          2.0996930054       -0.2415787135       -1.5968806082
 C          1.3986191377        0.9122065847       -1.2749050016
 O          0.6527502058        1.3289489420       -2.1788691977
 O          2.6026971846        1.3502816258        2.1153141692
 C          0.8662472508        2.7581269368        0.3362092237
 C         -0.6236066822        2.5304207812        0.2782524271
 C         -1.5018455072        3.3545515138       -0.4116799625
 C         -2.8578744991        3.0726853713       -0.4346438328
 C         -3.3675967506        1.9743121709        0.2322796091
 C         -2.4970056099        1.1449883776        0.9297451598
 C         -1.1408473876        1.4287352901        0.9507257723
 H         -0.4647321978        0.7814476294        1.4961810939
 N         -3.0053074809        0.0203355313        1.6151851507
 S         -3.7354718889       -1.1794886407        0.7046767439
 O         -4.8706321248       -0.6176987647        0.0192712570
 O         -4.0125738948       -2.2510486273        1.6334776235
 C         -2.5072313490       -1.7084740852       -0.4758587108
 C         -1.8550511063       -2.9076219243       -0.2683725784
 C         -0.8882113881       -3.3101855903       -1.1751107905
 C         -0.5777897229       -2.5001355919       -2.2574439466
 C         -1.2321185636       -1.2926360586       -2.4450724165
 C         -2.2112173589       -0.8924018606       -1.5498854918
 H         -2.7413062925        0.0374145116       -1.6764776096
 H         -0.9709846804       -0.6492921829       -3.2696899567
 H          0.1793185095       -2.8061415105       -2.9628961854
 H         -0.3819580341       -4.2522122045       -1.0331240288
 H         -2.1255145010       -3.5040775204        0.5881949361
 H         -2.3287038320       -0.4044709104        2.2341014175
 H         -4.4177535367        1.7330349368        0.2085456567
 H         -3.5281062409        3.7195839634       -0.9801967638
 H         -1.1261254821        4.2155665876       -0.9391179664
 H          1.1367243369        2.9721445362        1.3811888679
 C          1.3448283717        3.9011666333       -0.5332359078
 C          1.2764115152        5.3108800236       -0.0290646859
 C          2.6016080665        4.6226316926       -0.1525642667
 H          3.2755605859        4.9337702760       -0.9365496973
 H          3.1016410071        4.3060811274        0.7512781201
 H          1.0425844009        6.0990182065       -0.7287729219
 H          0.8781343333        5.4687420222        0.9618196064
 H          1.1711748928        3.7240117030       -1.5885293937
