  62
        -98.94431755
 C         -2.6507457090       -1.0887422351        0.1868397883
 C         -2.7182837198       -0.2797350579       -0.9735569922
 C         -3.5224024698        0.9425526147       -0.8486656215
 C         -4.1510936144        1.2165243931        0.3088980486
 C         -5.0269884779        2.4098888782        0.5796708688
 C         -4.2553533276        3.6710426552        0.9922518598
 C         -3.4712064673        4.3507567859       -0.1310862850
 H         -4.1322890706        4.5230880371       -0.9808096224
 H         -3.1587176507        5.3279163722        0.2424762148
 C         -2.2275571058        3.5775080175       -0.5922916287
 H         -1.3811682654        4.2631088397       -0.6742432074
 H         -1.9624016188        2.8325551014        0.1619673744
 C         -2.3795555304        2.8796238554       -1.9440705355
 H         -2.5120289996        3.6273979044       -2.7288962951
 H         -1.4574820037        2.3304918898       -2.1518609511
 C         -3.5469768591        1.8862602931       -2.0127869038
 H         -4.4957945452        2.4206034229       -2.0524850391
 H         -3.4384031167        1.2925661615       -2.9235045785
 H         -3.5750767439        3.4133533301        1.8076816146
 H         -4.9838695077        4.3856560438        1.3820997441
 H         -5.6343563257        2.6249778848       -0.2997983426
 H         -5.6901784017        2.1286200584        1.4005745096
 O         -4.0719847815        0.4032999742        1.3970788518
 C         -3.3010285634       -0.7488171908        1.3716872298
 O         -3.2745542419       -1.3740656315        2.4526565938
 H         -0.3527848891       -0.3365086178        1.0868234407
 C          0.2192646429       -0.9465040186        0.3967469930
 C         -0.3892635851       -2.0473809151       -0.1938208399
 C          0.3632117081       -2.8309611965       -1.0587715148
 C          1.6783222951       -2.5016961002       -1.3389144261
 C          2.2710544107       -1.3916717199       -0.7667770391
 C          1.5333775783       -0.6093874195        0.1123266183
 N          2.1254530472        0.5258140802        0.6952090794
 S          3.5972561429        0.3293804735        1.4824978107
 O          3.7423542871       -1.0108634264        2.0018317738
 O          3.6539349666        1.4040678144        2.4495525425
 C          4.8082675460        0.6277211389        0.2121237352
 C          4.7799493265        1.8442321294       -0.4412066616
 C          5.7200658640        2.0955961916       -1.4276261550
 C          6.6682910169        1.1328161199       -1.7405144691
 C          6.6854062488       -0.0822278363       -1.0729781245
 C          5.7474061197       -0.3402691489       -0.0853101470
 H          5.7193528341       -1.2715431998        0.4576695261
 H          7.4236108129       -0.8289917313       -1.3174502152
 H          7.3984089922        1.3312386276       -2.5091634243
 H          5.7100127397        3.0393837952       -1.9486922789
 H          4.0293211744        2.5660451650       -0.1652761937
 H          1.4914111335        1.0616172743        1.2699738508
 H          3.2914195825       -1.1266290220       -0.9902491929
 H          2.2484768275       -3.1166606543       -2.0182640413
 H         -0.0814781490       -3.6985837466       -1.5176931557
 C         -1.8220933690       -2.3593887892        0.1684797587
 H         -1.8333724994       -2.7475050807        1.1983228901
 C         -2.4649870650       -3.3834379280       -0.7446898168
 C         -2.3305481856       -4.8477366139       -0.4569020673
 C         -3.6433498177       -4.1587764278       -0.2398980905
 H         -4.4558274550       -4.3650677067       -0.9202700986
 H         -3.9622691089       -3.9682813401        0.7749544432
 H         -2.2450176735       -5.5313627601       -1.2880879845
 H         -1.7615851212       -5.1369517725        0.4139503377
 H         -2.4834709454       -3.0615813103       -1.7795204881
 O         -2.1394224009       -0.5600517753       -2.0540407578
