  62
        -98.94129050
 C         -2.6754476173       -0.3308484009       -0.2874322124
 C         -2.2607290396       -1.1265294927        0.8096227157
 C         -1.6780098077       -2.4361709665        0.4662277545
 C         -1.5551994096       -2.7963276165       -0.8225446529
 C         -0.9652884220       -4.0902441848       -1.3048150089
 C          0.5389429913       -3.9673407307       -1.5785247791
 C          1.3325156249       -3.3359316585       -0.4341498583
 H          2.3871125585       -3.3621150381       -0.7201137376
 H          1.0581450240       -2.2819600584       -0.3446907684
 C          1.1561603281       -4.0251017707        0.9256418407
 H          0.7693207976       -5.0355725798        0.7833028183
 H          2.1364420653       -4.1139151314        1.3986622880
 C          0.2589812665       -3.2679483105        1.9069846033
 H          0.5722809935       -2.2213729314        1.9518901370
 H          0.4045915283       -3.6975751866        2.9023107835
 C         -1.2450117414       -3.3133024124        1.6072342116
 H         -1.7702559297       -2.9347975243        2.4893482962
 H         -1.5565177223       -4.3469367706        1.4377721941
 H          0.6800004427       -3.3481409243       -2.4674409836
 H          0.9311337018       -4.9646899884       -1.7888631052
 H         -1.1462772487       -4.8618217696       -0.5584663791
 H         -1.4707897610       -4.3682676438       -2.2317060103
 O         -1.9546186876       -2.0027703805       -1.8501786098
 C         -2.4916881684       -0.7520547316       -1.6070105216
 O         -2.7946421454       -0.1166048484       -2.6388954659
 O         -2.3778557676       -0.7961098763        2.0177288582
 C         -3.2330779613        1.0790923794       -0.1538008243
 C         -2.1192948177        2.0713168103       -0.3821116553
 C         -2.3079328649        3.2166843951       -1.1467845702
 C         -1.2560900006        4.0843043165       -1.3838389324
 C          0.0090754438        3.8084973190       -0.8967437213
 C          0.2070000159        2.6642739082       -0.1331530599
 C         -0.8606847098        1.8254023095        0.1448168221
 H         -0.6902584961        0.9473599968        0.7497218697
 N          1.4759015340        2.3114000988        0.3591402758
 S          1.8493539205        0.6593504659        0.2452113151
 O          1.2948027823        0.1205866371       -0.9753787031
 O          1.4690587207        0.0161376280        1.4761592671
 C          3.6283708967        0.7236655400        0.1371496039
 C          4.3700372157        0.7716627115        1.3022469562
 C          5.7506552931        0.8556809331        1.2137636882
 C          6.3625605029        0.8912196749       -0.0304573012
 C          5.6049802960        0.8398247246       -1.1910821819
 C          4.2238229600        0.7567462068       -1.1096689062
 H          3.5937380503        0.7032250453       -1.9833232117
 H          6.0831404941        0.8633788613       -2.1570381427
 H          7.4370543989        0.9560053803       -0.0966235157
 H          6.3428828835        0.8919123789        2.1137614108
 H          3.8492303044        0.7313656771        2.2447220753
 H          2.2169040561        2.8870323279       -0.0183809647
 H          0.8378044200        4.4657616578       -1.1124322653
 H         -1.4160863826        4.9704961121       -1.9790366298
 H         -3.2788446708        3.4103166470       -1.5787735090
 H         -3.9479761809        1.1970212000       -0.9854955846
 C         -3.9937091138        1.3307494516        1.1386204313
 C         -3.4227943776        2.1130428788        2.2789101977
 C         -4.5218076816        2.7005145228        1.4486336914
 H         -5.5073291485        2.7846945497        1.8806794712
 H         -4.2623287559        3.5020914201        0.7742220879
 H         -3.6427199609        1.7716084439        3.2785995006
 H         -2.4258109243        2.5116147355        2.1685434631
 H         -4.6294699851        0.4925510366        1.4022765382
