  62
        -98.94045427
 C         -1.5034564438       -1.1926814352        0.0291789393
 C         -2.5390626587       -0.9162573007        0.9555274501
 C         -3.2960388097        0.3303306122        0.7501763581
 C         -2.9489062696        1.1429680789       -0.2625846020
 C         -3.6034672253        2.4344733836       -0.6685344867
 C         -4.6644687611        2.1884096636       -1.7547478982
 C         -6.0570500352        1.8432328218       -1.2287193721
 H         -6.5025531551        2.7339979657       -0.7807672314
 H         -6.6708412966        1.5686804277       -2.0898006259
 C         -6.1068706092        0.7046413007       -0.2064969339
 H         -5.4524222219       -0.1076549379       -0.5280735223
 H         -7.1253987262        0.3116835964       -0.1928704877
 C         -5.7275713937        1.1511654670        1.2134113832
 H         -5.7126001122        2.2401559567        1.2524707759
 H         -6.5017138940        0.8278819751        1.9124529693
 C         -4.3966234796        0.5957761737        1.7406928066
 H         -4.0128069026        1.2658305899        2.5171782948
 H         -4.5723306075       -0.3701462362        2.2245937633
 H         -4.3043488439        1.3823232398       -2.3992660278
 H         -4.7495553809        3.0854253262       -2.3715507323
 H         -4.0321074737        2.9377306340        0.1928152370
 H         -2.8184414509        3.0658075129       -1.0900843955
 O         -1.9345831435        0.8485332792       -1.1204481172
 C         -1.1943745883       -0.3171257760       -1.0109983029
 O         -0.3169146301       -0.4391857992       -1.8869721357
 H          1.5546455696       -1.9957273989       -1.2790437189
 C          1.7132634563       -1.7876841325       -0.2332042328
 C          0.6941525338       -2.0122040943        0.6791837893
 C          0.9208274787       -1.7103997252        2.0193047712
 C          2.1362303419       -1.1975440876        2.4330484670
 C          3.1419807367       -0.9476472913        1.5151984511
 C          2.9180766692       -1.2328814297        0.1751277654
 N          3.9076892448       -0.9150612972       -0.7740924746
 S          4.5560834337        0.6255356665       -0.6648611020
 O          4.8999341468        0.9989161826       -2.0195163225
 O          5.6547296332        0.6118478617        0.2706907201
 C          3.2571849141        1.6772422824       -0.0314436776
 C          3.5108122008        2.4626567819        1.0753327865
 C          2.5043288754        3.2770132185        1.5682933879
 C          1.2629282877        3.2897952604        0.9513300986
 C          1.0254711635        2.4978559500       -0.1609860035
 C          2.0288530205        1.6841339710       -0.6617956301
 H          1.8432249775        1.0543559143       -1.5178037185
 H          0.0598068118        2.4925947904       -0.6419706229
 H          0.4749428236        3.9171568947        1.3375576838
 H          2.6882694457        3.8942289962        2.4328855897
 H          4.4872395898        2.4146708257        1.5295893971
 H          3.6230078337       -1.1102471737       -1.7235650133
 H          4.0893369585       -0.5277812822        1.8129566660
 H          2.2996284556       -0.9764634344        3.4766330566
 H          0.1228243129       -1.8677700913        2.7310935162
 C         -0.6787039518       -2.4532856075        0.2378500777
 H         -1.1577278297       -2.9816805255        1.0723167373
 C         -0.6767557387       -3.3575478267       -0.9761249521
 C         -0.1785370566       -4.7641641376       -0.8363578806
 C         -1.6401754610       -4.5031802408       -1.0377865387
 H         -2.0827951672       -4.7528002100       -1.9905490168
 H         -2.3051405163       -4.6436364662       -0.1982915496
 H          0.3844332966       -5.1966189743       -1.6493551088
 H          0.1506768050       -5.0792987963        0.1422488892
 H         -0.4723046042       -2.8379247861       -1.9041327758
 O         -2.8242988298       -1.6839241062        1.9128105704
