  62
        -98.93816587
 C          2.0040048236       -0.8860281568       -0.1601083216
 C          2.3752619503        0.3721063406        0.3678515051
 C          3.6913306289        0.8941053363       -0.0490379421
 C          4.4405488160        0.1813032474       -0.9071504325
 C          5.8172142031        0.5085346089       -1.4156306131
 C          6.8928787769       -0.1597923186       -0.5425705661
 C          7.3309926927        0.6533093323        0.6749048356
 H          7.9194947153        1.5104558420        0.3409192495
 H          7.9890137045        0.0169470661        1.2711496124
 C          6.1947630538        1.1588026407        1.5676900970
 H          6.6151535165        1.3813553629        2.5504085831
 H          5.4546410099        0.3683429660        1.7043248877
 C          5.5144250745        2.4228567873        1.0212415677
 H          6.1246155199        2.8374001608        0.2189757903
 H          5.4790040240        3.1820080794        1.8055382479
 C          4.0728890880        2.2306797809        0.5270210329
 H          3.8415922396        3.0067388928       -0.2105626263
 H          3.3800464708        2.3802988816        1.3611718139
 H          7.7750348725       -0.3494775523       -1.1573807664
 H          6.5060476851       -1.1292840740       -0.2184352118
 H          5.8819733233        0.0950753820       -2.4242988597
 H          5.9641629077        1.5831848244       -1.4681181125
 O          4.0364186323       -1.0184825981       -1.4075016114
 C          2.8240903880       -1.5771121256       -1.0561863483
 O          2.5893670772       -2.6769310122       -1.5948887021
 H         -0.8100403666        0.5673778377        1.0999402432
 C         -1.0919158274        0.2729384471        0.1016098290
 C         -0.4308788185       -0.7769950530       -0.5173458963
 C         -0.7889961331       -1.1166795841       -1.8183887675
 C         -1.7830049717       -0.4212514860       -2.4823545947
 C         -2.4398855590        0.6273921343       -1.8627262661
 C         -2.0822291901        0.9786503358       -0.5679056458
 N         -2.7571447408        2.0361487520        0.0698800309
 S         -4.4291025007        1.9453467186        0.0781756665
 O         -4.9469434392        2.4513928124       -1.1687478894
 O         -4.8512429484        2.6509663901        1.2678651616
 C         -4.7850532288        0.2015616938        0.2156033623
 C         -4.3374517365       -0.4673336868        1.3378601707
 C         -4.5559625547       -1.8313840040        1.4366558300
 C         -5.2136824744       -2.5007567603        0.4158776632
 C         -5.6612454738       -1.8143319703       -0.7018735906
 C         -5.4428649947       -0.4498982268       -0.8072647353
 H         -5.7683865405        0.1215363191       -1.6611130225
 H         -6.1737122324       -2.3373057468       -1.4931712722
 H         -5.3777722751       -3.5639680314        0.4936201782
 H         -4.2078874437       -2.3678937041        2.3047344545
 H         -3.8331086338        0.0823257660        2.1162432418
 H         -2.3964157348        2.2463781320        0.9891353234
 H         -3.2174268403        1.1828336380       -2.3620630766
 H         -2.0506075420       -0.6979500612       -3.4906965564
 H         -0.2688763321       -1.9290265050       -2.3064631864
 C          0.6720695170       -1.5393993807        0.1757020039
 H          0.7151407978       -2.5424862131       -0.2684162855
 C          0.4518550229       -1.6777942911        1.6688318376
 C         -0.6892242190       -2.5172708318        2.1579381484
 C          0.7210676727       -2.9929261203        2.3327509852
 H          1.1481595494       -2.9905431516        3.3245759455
 H          1.0679537228       -3.8057243587        1.7114937628
 H         -1.3016871113       -3.0036140304        1.4138525000
 H         -1.2312126702       -2.1898900785        3.0319072171
 H          0.6983739897       -0.7840232742        2.2273027972
 O          1.6607307367        1.0388185745        1.1629573894
