  62
        -98.94249247
 C         -1.1907764361       -1.6860738720        0.2210236692
 C         -1.5760231674       -0.6896495341        1.1452898730
 C         -2.7742480690        0.1061281844        0.8208578819
 C         -3.4265663684       -0.1504402125       -0.3280399565
 C         -4.6444448794        0.5348824986       -0.8899845710
 C         -4.3259174213        1.9076036029       -1.4993005119
 C         -3.4489133280        2.8063738946       -0.6318955697
 H         -3.2501111754        3.7204186231       -1.1988276135
 H         -2.4814727938        2.3259221267       -0.4690468495
 C         -4.0604737884        3.2128304714        0.7075972614
 H         -5.0195181074        3.7043202688        0.5281444778
 H         -3.3875559972        3.9498396451        1.1536117087
 C         -4.2684282669        2.0876721846        1.7255203246
 H         -5.1700388492        1.5193759357        1.5121574694
 H         -4.4212849948        2.5577218232        2.7013726859
 C         -3.0794174626        1.1448833299        1.8724654088
 H         -3.1830339126        0.5895877816        2.8124669188
 H         -2.1647282144        1.7395139651        1.9856016395
 H         -5.2686006879        2.4147085520       -1.7149337877
 H         -3.8030378951        1.7475735284       -2.4457226220
 H         -5.4134256055        0.6223707750       -0.1282031328
 H         -5.0293248547       -0.1140824953       -1.6801220534
 O         -3.0125612792       -1.1167816716       -1.1978642954
 C         -1.8788815344       -1.8767911080       -0.9757397248
 O         -1.6033430031       -2.6720645456       -1.8949314851
 O         -0.9340264515       -0.4581378385        2.2074084459
 C          0.0811516356       -2.4711900976        0.4788853706
 C          1.1544698508       -2.0538640639       -0.4993499126
 C          2.1000954424       -2.9260378600       -1.0242697772
 C          3.0700779966       -2.4602123418       -1.8958917928
 C          3.1349274619       -1.1233890544       -2.2464763190
 C          2.1952031046       -0.2424299919       -1.7231123522
 C          1.2202060007       -0.7162816300       -0.8619289097
 H          0.4816805450       -0.0270119428       -0.4859801418
 N          2.2038908846        1.1209848697       -2.0500566042
 S          1.7371256965        2.2607386158       -0.9180815676
 O          0.3127897847        2.2148524061       -0.7047173796
 O          2.2550315420        3.5066451478       -1.4433115419
 C          2.6350306253        1.8228852914        0.5601165079
 C          3.9947080281        2.0738667311        0.5587106540
 C          4.7493623694        1.7107026717        1.6609481826
 C          4.1353114012        1.0979582418        2.7433748039
 C          2.7711074599        0.8569168210        2.7316060946
 C          2.0086644487        1.2208763439        1.6315472962
 H          0.9461813389        1.0339628735        1.6087392156
 H          2.2837709511        0.3818235281        3.5681816809
 H          4.7213004554        0.8095115426        3.6017186808
 H          5.8100344795        1.9030068085        1.6730165353
 H          4.4303040607        2.5645640796       -0.2965579456
 H          2.9946234657        1.4295368998       -2.5954030930
 H          3.8939109580       -0.7657507032       -2.9250328637
 H          3.7930070871       -3.1496112426       -2.3047844548
 H          2.0723833446       -3.9701168014       -0.7585565662
 H          0.4133054355       -2.1619800512        1.4824412374
 C         -0.1795666072       -3.9621550327        0.4912656947
 C          0.6337204011       -4.8649763612        1.3689146425
 C         -0.7961746684       -4.5773286390        1.7109614000
 H         -1.5294374662       -5.3586721525        1.5795088413
 H         -1.0018411766       -3.9230545619        2.5457444205
 H          0.8824047517       -5.8501952010        1.0042216394
 H          1.3994674873       -4.4125312590        1.9806995762
 H         -0.5012485957       -4.3360614462       -0.4737840380
