  62
        -98.93690464
 C          2.4692958398        0.8626619902        0.4356635697
 C          2.5560196601       -0.3280542795       -0.3212546608
 C          3.7323506703       -1.1787430693       -0.0624722711
 C          4.6253766002       -0.7962092794        0.8667962791
 C          5.9099833203       -1.4835585792        1.2388094489
 C          7.0878258002       -0.8983031586        0.4412439092
 C          7.3273558905       -1.5454924880       -0.9223432811
 H          8.0929139903       -0.9554978476       -1.4316097508
 H          7.7313066707       -2.5495558280       -0.7765961215
 C          6.0967958705       -1.6405597880       -1.8282770912
 H          6.4466549306       -1.7577013575       -2.8558559612
 H          5.5336027403       -0.7065751981       -1.7836681208
 C          5.1793198908       -2.8218427584       -1.4786711617
 H          4.9733346110       -3.3986620180       -2.3826587519
 H          5.7057049510       -3.4913642385       -0.7986195219
 C          3.8180603807       -2.4405570189       -0.8770059916
 H          3.0903635407       -2.2980283488       -1.6821254216
 H          3.4500418709       -3.2737968693       -0.2692536119
 H          7.9997709102       -1.0070140986        1.0317993692
 H          6.9068704200        0.1722441314        0.3145458096
 H          6.0749375603       -1.2830905796        2.2994888490
 H          5.8300368706       -2.5566066392        1.0929982685
 O          4.4922363999        0.3529592502        1.5859926096
 C          3.4252486796        1.2088170800        1.3894209099
 O          3.4342130293        2.2244191898        2.1147802003
 H         -0.9917355804        1.7408378100       -1.3082116801
 C         -1.0766500003        1.1742211796       -0.3939532203
 C         -0.0026649503        1.1026812295        0.4782657197
 C         -0.1522622802        0.3741094690        1.6556467994
 C         -1.3355561000       -0.2799210814        1.9372105591
 C         -2.3995606000       -0.2215282113        1.0535386391
 C         -2.2680818001        0.5142807792       -0.1149593406
 N         -3.3400941201        0.5755779492       -1.0186935507
 S         -4.8835465602        0.8773205286       -0.4395196106
 O         -5.6032028803        1.4355292689       -1.5635819304
 O         -4.8518033005        1.6783457081        0.7620916797
 C         -5.5375211898       -0.7395375717       -0.0808904513
 C         -6.0908052398       -0.9976328623        1.1579019186
 C         -6.6121640895       -2.2570980726        1.4101747381
 C         -6.5721169792       -3.2305508322        0.4238794777
 C         -6.0143005592       -2.9548055515       -0.8157262822
 C         -5.4926795795       -1.6975176913       -1.0747052317
 H         -5.0533015895       -1.4442388908       -2.0250916015
 H         -5.9838646090       -3.7148388412       -1.5797898125
 H         -6.9776810289       -4.2100855124        0.6223286973
 H         -7.0459902494       -2.4734122931        2.3732794880
 H         -6.0951984700       -0.2118828726        1.8966239489
 H         -3.1479162402        1.1100571996       -1.8532555404
 H         -3.3240258198       -0.7331497717        1.2657319588
 H         -1.4317687599       -0.8444384018        2.8524042588
 H          0.6783109098        0.3269393789        2.3473544594
 C          1.3049347095        1.8123668600        0.2225931200
 H          1.4137530693        2.6007959297        0.9821389203
 C          1.4011530194        2.4447493205       -1.1505109797
 C          0.8358720491        3.8105215005       -1.3968997992
 C          2.3203096791        3.6116368309       -1.3439901392
 H          2.8837934291        3.6787541614       -2.2625291392
 H          2.8558478790        3.9689431706       -0.4762528091
 H          0.3828896691        4.0182433608       -2.3550015091
 H          0.3616379389        4.3134544400       -0.5674144490
 H          1.3469232296        1.7140762108       -1.9496351800
 O          1.6989721402       -0.6644089494       -1.1799340110
