  62
        -98.93780050
 C         -1.8030700612       -0.0217222087       -0.3868968838
 C         -2.9810187853        0.3338402810       -1.0842891258
 C         -4.2486049430       -0.1647884107       -0.5258245166
 C         -4.2253075252       -0.9258482512        0.5818354664
 C         -5.3828697895       -1.5775794846        1.2966689512
 C         -6.6609847196       -0.7480899989        1.4812490542
 C         -6.4349701830        0.7589342182        1.6709031496
 H         -6.9787881095        1.0902280828        2.5575689251
 H         -5.3763275271        0.9593955297        1.8447557097
 C         -6.9237623168        1.5900196132        0.4821464168
 H         -7.8919548494        1.2019038939        0.1583685120
 H         -7.0788619936        2.6194880849        0.8138660825
 C         -5.9777865955        1.6387111287       -0.7169905972
 H         -5.0917259249        2.2277871292       -0.4656051236
 H         -6.4900894276        2.1611345847       -1.5284212394
 C         -5.4966982096        0.2740312651       -1.2366338622
 H         -6.2832391069       -0.4734959054       -1.1692275428
 H         -5.2184537143        0.3942001582       -2.2871760258
 H         -7.3224440959       -0.9033286085        0.6300770419
 H         -7.1746084635       -1.1521836942        2.3552996371
 H         -5.6300143781       -2.5032665652        0.7686040399
 H         -4.9866996321       -1.8625862849        2.2743756325
 O         -3.0636346733       -1.2517807311        1.2181476572
 C         -1.8310609587       -0.8096471882        0.7621432586
 O         -0.8641326323       -1.1817697315        1.4539317148
 H          2.1518457498        0.0928040022       -0.0993166225
 C          1.7652738159       -0.7219688538       -0.6877059928
 C          0.4623296707       -0.6894840430       -1.1596965839
 C          0.0005892682       -1.7628292709       -1.9181089329
 C          0.8133476510       -2.8492991578       -2.1730034551
 C          2.1053885981       -2.8890364762       -1.6786930103
 C          2.5821500124       -1.8181185060       -0.9330922245
 N          3.9040880233       -1.8124951339       -0.4705835401
 S          4.3519519645       -1.0504779589        0.9471282718
 O          5.6576730834       -1.6050963913        1.2409971257
 O          3.3618368917       -1.1843042911        1.9887122989
 C          4.5526122127        0.6595808143        0.4930655189
 C          4.1551759418        1.6387863076        1.3814729989
 C          4.3592892372        2.9694431965        1.0497193577
 C          4.9537988184        3.2956373418       -0.1595791131
 C          5.3470633367        2.2998616788       -1.0407240902
 C          5.1507204456        0.9679388333       -0.7128324795
 H          5.4456666751        0.1687861364       -1.3717854766
 H          5.8069556396        2.5577103012       -1.9810248910
 H          5.1084877824        4.3317679204       -0.4159716252
 H          4.0537526033        3.7442625415        1.7352503100
 H          3.6839888046        1.3399289414        2.3048613578
 H          4.4141060410       -2.6714780968       -0.6140404881
 H          2.7393756805       -3.7418565973       -1.8679858323
 H          0.4380839342       -3.6769549134       -2.7560634280
 H         -1.0119921910       -1.7357787680       -2.2973839649
 C         -0.4654495544        0.4718774327       -0.9066090718
 H         -0.6894708682        0.9480956714       -1.8732451641
 C          0.1104704774        1.5178776364        0.0244314782
 C          0.9885406915        2.6040006250       -0.5194867555
 C         -0.4027542163        2.9229456121       -0.0637779690
 H         -0.5335044035        3.4819175221        0.8506605539
 H         -1.1544240525        3.1276402079       -0.8121379658
 H          1.8182435010        2.9454701737        0.0804398901
 H          1.1846896823        2.5995398466       -1.5808075873
 H          0.3280357523        1.1235166504        1.0118312625
 O         -2.9739411380        1.0256642377       -2.1374403763
