  62
        -98.94590944
 C          1.0843790262        1.2897838830       -0.0447124565
 C          1.7403503842        0.5551681986        0.9776833137
 C          2.5537772387       -0.5895014285        0.5487011556
 C          2.6033326960       -0.9015475882       -0.7587278791
 C          3.4053735711       -2.0275984634       -1.3428352873
 C          4.8044862559       -1.5559769418       -1.7626174845
 C          5.5336737579       -0.7543336028       -0.6842325899
 H          6.5198558142       -0.5009439041       -1.0792148335
 H          5.0023083018        0.1860627937       -0.5205640933
 C          5.6913909674       -1.4881075046        0.6548817010
 H          5.5435066671       -2.5587653918        0.5095248528
 H          6.7139313983       -1.3476180522        1.0114270104
 C          4.7613081162       -0.9927173599        1.7637877178
 H          5.1074192196       -1.4158964255        2.7104212833
 H          4.8359388521        0.0945318521        1.8447292987
 C          3.2806451458       -1.3646479884        1.6124858680
 H          2.7833984240       -1.1185554192        2.5556757157
 H          3.1892782628       -2.4392894051        1.4395838327
 H          5.3974236090       -2.4317739321       -2.0326965636
 H          4.7053736439       -0.9263724724       -2.6500707699
 H          2.8775958969       -2.4038484826       -2.2213574302
 H          3.4846195573       -2.8281547216       -0.6096387742
 O          1.9529827026       -0.1876337455       -1.7106713985
 C          1.1911420350        0.9319819992       -1.3902824249
 O          0.6910311045        1.4883484122       -2.3865222029
 O          1.6505339192        0.8492677584        2.1994999865
 C          0.2429918130        2.4649888214        0.4179210988
 C         -1.1949125721        2.0617624388        0.6529656742
 C         -1.8631783079        2.4776009077        1.7993074629
 C         -3.1829330047        2.1251843081        2.0140790219
 C         -3.8534802071        1.3306984987        1.1018377633
 C         -3.1935337723        0.9045338572       -0.0445938817
 C         -1.8776741210        1.2834218227       -0.2705120025
 H         -1.3904961088        0.9605462793       -1.1774204651
 N         -3.8393157787        0.0736647332       -0.9793463849
 S         -3.0535834596       -1.3314243576       -1.4431824877
 O         -2.0016885462       -1.0436053658       -2.3820628728
 O         -4.1141922426       -2.1933646771       -1.9213107921
 C         -2.3834525423       -1.9773126236        0.0777479512
 C         -1.0499892840       -1.7853233808        0.3736393805
 C         -0.5639317958       -2.2254587054        1.5945246948
 C         -1.4168438103       -2.8470890119        2.4929795740
 C         -2.7536520029       -3.0405001481        2.1780890568
 C         -3.2455123594       -2.5974207688        0.9616374740
 H         -4.2751214972       -2.7356420070        0.6740017792
 H         -3.4115766326       -3.5296494822        2.8780043985
 H         -1.0329224246       -3.1826938971        3.4432833571
 H          0.4738832859       -2.0638567902        1.8380129468
 H         -0.4141276479       -1.2970121210       -0.3485195581
 H         -4.8025225385       -0.1282061212       -0.7492456931
 H         -4.8789553845        1.0406211672        1.2721397064
 H         -3.6902823984        2.4586093471        2.9060793418
 H         -1.3366323396        3.0729909194        2.5297909409
 H          0.6646042323        2.7569981280        1.3900504855
 C          0.2913526294        3.6691668515       -0.5025511638
 C          0.0542040381        5.0359915804        0.0632757397
 C          1.4274110035        4.6388854720       -0.3869944978
 H          1.8258922710        5.0725557897       -1.2917619920
 H          2.1749399805        4.4435949256        0.3682681996
 H         -0.4962059976        5.7482626558       -0.5317732216
 H         -0.1240345009        5.1180808782        1.1244433427
 H         -0.0858324236        3.4621004812       -1.4957881378
