  62
        -98.93468951
 C         -1.5290148372       -0.7558488388        0.5139885144
 C         -2.6516673977       -0.9988514873       -0.3113586288
 C         -3.6279066293        0.1064224441       -0.4453368901
 C         -3.3783615935        1.2793252211        0.1636182898
 C         -4.2325102591        2.5186685042        0.1877042917
 C         -5.4309786191        2.3914498407        1.1427492553
 C         -6.1657218938        1.0547751569        1.0791630625
 H         -6.9097920766        1.0462805425        1.8801905012
 H         -5.4601532458        0.2477459563        1.2856457440
 C         -6.8909636615        0.7721731325       -0.2343443929
 H         -7.6326021119        1.5550345151       -0.4088973826
 H         -7.4283330980       -0.1718182069       -0.1118173164
 C         -6.0054164568        0.6576232304       -1.4765580255
 H         -5.6875703911        1.6377391295       -1.8215043534
 H         -6.6206246063        0.2325280330       -2.2751143055
 C         -4.8009353805       -0.2656264093       -1.3204064234
 H         -4.3788245044       -0.4569652209       -2.3143476621
 H         -5.1443818264       -1.2429418624       -0.9624409474
 H         -6.1289887365        3.2033844988        0.9321328847
 H         -5.0633211938        2.5190525337        2.1639235270
 H         -4.5613158299        2.7649925398       -0.8174468895
 H         -3.5947934982        3.3328693965        0.5387327175
 O         -2.2593952352        1.4813785472        0.9181597318
 C         -1.3274565169        0.4853822332        1.1209483838
 O         -0.3707596072        0.8167081899        1.8509610942
 O         -2.8611553406       -2.0802799419       -0.9176233177
 C         -0.4437477918       -1.7867389636        0.7787794644
 C          0.6432830093       -1.6592001924       -0.2568924223
 C          0.3527540747       -1.7195019897       -1.6171894412
 C          1.3601158138       -1.5815097039       -2.5535135146
 C          2.6676584822       -1.3602551627       -2.1552682925
 C          2.9663641557       -1.2901078456       -0.8003988444
 C          1.9557489771       -1.4514575957        0.1385833441
 H          2.2035149069       -1.3904023668        1.1875264615
 N          4.2842747651       -1.0664553057       -0.3632500424
 S          4.5727130936        0.1495206888        0.7542740239
 O          6.0060968253        0.3406612017        0.7141584357
 O          4.0168147107       -0.2151707586        2.0307996791
 C          3.7561390523        1.5799294735        0.0706977914
 C          4.4688178984        2.3613319184       -0.8195796002
 C          3.8417795968        3.4389665839       -1.4217828431
 C          2.5120712036        3.7105883500       -1.1345964328
 C          1.8117127021        2.9157334460       -0.2414519076
 C          2.4343806313        1.8386012390        0.3711486174
 H          1.8961460531        1.2196918224        1.0720123854
 H          0.7773318157        3.1156750695       -0.0076874104
 H          2.0192528404        4.5466197835       -1.6055643209
 H          4.3872399480        4.0614523636       -2.1126417256
 H          5.5024617645        2.1190756508       -1.0074137117
 H          4.9590331409       -1.0102578277       -1.1134079647
 H          3.4519608710       -1.2436994563       -2.8876514054
 H          1.1245726078       -1.6367615864       -3.6055209604
 H         -0.6690989090       -1.8796436171       -1.9265958175
 H         -0.0048521291       -1.5007998997        1.7487971448
 C         -0.9746525800       -3.2053762516        0.9293931782
 C         -0.6756693792       -4.3130773020       -0.0310291169
 C         -0.0325574705       -4.3056451407        1.3209464976
 H         -0.3536646757       -5.0273296556        2.0568213152
 H          1.0180776763       -4.0593409011        1.3740106597
 H         -1.4623947293       -5.0247875177       -0.2292788682
 H         -0.0584253562       -4.0975164929       -0.8884851371
 H         -1.9572711584       -3.2235499973        1.3891431276
