  62
        -98.94792960
 C         -1.1316169795       -1.1864931103        0.4765217702
 C         -1.5283193699       -0.4758856600       -0.6817491595
 C         -2.3043535102        0.7482776197       -0.4387579689
 C         -2.4897010501        1.1843514392        0.8201813112
 C         -3.2197075804        2.4363962089        1.2248979718
 C         -4.7396120503        2.2566543284        1.3434691019
 C         -5.4813431705        2.1041614187        0.0147177120
 H         -6.5470797705        2.2006543684        0.2311383622
 H         -5.2087424708        2.9257251790       -0.6483080878
 C         -5.2408488602        0.7638883590       -0.6945286285
 H         -4.8234155499        0.0461890089        0.0156681312
 H         -6.1952740101        0.3564364689       -1.0353421985
 C         -4.3221488104        0.8469155397       -1.9137742986
 H         -4.7955563707        1.4553584399       -2.6873360783
 H         -4.1904760702       -0.1621710601       -2.3120483090
 C         -2.9319827405        1.4270458000       -1.6198409786
 H         -2.2938687706        1.2427935004       -2.4874781588
 H         -3.0077116208        2.5018254499       -1.4539050082
 H         -4.9396049400        1.3877066382        1.9749188117
 H         -5.1328706105        3.1370389781        1.8570435323
 H         -2.8284397203        2.7217268186        2.2040242818
 H         -3.0012143607        3.2373504792        0.5179745420
 O         -2.0006318498        0.5227381489        1.9047886209
 C         -1.3630744295       -0.7004942208        1.7635812504
 O         -1.0501125292       -1.2444128711        2.8428689102
 H          1.5595080605       -1.0039665999        1.2476304099
 C          1.8326835605       -1.4778172995        0.3154903797
 C          0.9242803107       -2.3210377395       -0.3148366205
 C          1.2993671707       -2.9400906390       -1.4993432808
 C          2.5520977805       -2.7088184785       -2.0409582508
 C          3.4505676704       -1.8651789684       -1.4153945407
 C          3.0889317104       -1.2480584390       -0.2219226004
 N          4.0014518203       -0.4209760390        0.4538077898
 S          3.5175418900        1.0083947707        1.1650643003
 O          4.7582972998        1.7003656909        1.4405998304
 O          2.6691969502        0.7492775500        2.2998204804
 C          2.6239563296        1.8813947909       -0.1054137392
 C          1.2454088896        1.9095022305       -0.0865283990
 C          0.5768044693        2.5748257807       -1.1018833587
 C          1.2934618390        3.1865632812       -2.1179760386
 C          2.6797699390        3.1482732816       -2.1241449888
 C          3.3532832193        2.4897562214       -1.1092928891
 H          4.4296352093        2.4529945117       -1.0648945893
 H          3.2339937287        3.6290021820       -2.9139703487
 H          0.7650411487        3.6979596814       -2.9068292683
 H         -0.5003824007        2.5988429004       -1.0937190885
 H          0.7166581798        1.4198718001        0.7172516309
 H          4.8868891402       -0.3054749286       -0.0177726603
 H          4.4281519903       -1.6894360380       -1.8374692607
 H          2.8312168605       -3.1918271780       -2.9648722411
 H          0.6112636508       -3.5991318490       -2.0015188209
 C         -0.4175857892       -2.5207449701        0.3473719596
 H         -0.2314382090       -2.8620099504        1.3763687095
 C         -1.3045859690       -3.5317290201       -0.3482843206
 C         -1.0900274386       -4.9965487001       -0.1190658112
 C         -2.2880163587       -4.3135201806        0.4675165292
 H         -3.2601803587       -4.5206241507        0.0458190093
 H         -2.3052654086       -4.1321601210        1.5328624093
 H         -0.2939492184       -5.2854579001        0.5504850886
 H         -1.2421337386       -5.6765739598       -0.9433742014
 H         -1.6216529493       -3.2073769198       -1.3322176804
 O         -1.2643131599       -0.8420250195       -1.8549659697
