  62
        -98.94946432
 C         -1.1204191060       -1.6472462159       -0.2766027726
 C         -2.3920269481       -1.4168158743        0.2960548169
 C         -3.1155036612       -0.2429157895       -0.2042057836
 C         -2.5528533609        0.5352138891       -1.1462904146
 C         -3.1547523682        1.7790772251       -1.7422099708
 C         -2.9488226671        3.0355551630       -0.8841444501
 C         -3.8238995980        3.1192979392        0.3670400713
 H         -3.7631157080        4.1470486108        0.7309643958
 H         -4.8641781922        2.9274363051        0.1004827847
 C         -3.3939496725        2.1753097300        1.4986288369
 H         -3.4055938117        2.7185680070        2.4470347271
 H         -2.3603253383        1.8580365290        1.3367176693
 C         -4.2843256921        0.9446688953        1.6746687159
 H         -3.8501813745        0.3203784962        2.4600038624
 H         -5.2781249635        1.2578104945        2.0044778601
 C         -4.4407042994        0.0832081464        0.4155523468
 H         -4.9109222056       -0.8600563822        0.7058967318
 H         -5.0838171858        0.5868522421       -0.3061420821
 H         -1.8994237851        3.0933755789       -0.5823596950
 H         -3.1647325669        3.9021296573       -1.5139356366
 H         -4.2206611572        1.6277673074       -1.9161669682
 H         -2.6641137869        1.9329378574       -2.7057928867
 O         -1.3404195501        0.2616258824       -1.6958147422
 C         -0.5833858090       -0.8160293233       -1.2597806380
 O          0.5227293157       -0.9293136368       -1.8205221727
 O         -2.8966293853       -2.1549475231        1.1865874387
 C         -0.2682412089       -2.7884065531        0.2417261385
 C          1.0637334363       -2.2754000491        0.7351966196
 C          2.2252298221       -3.0381864511        0.6895261939
 C          3.4233262916       -2.5226649330        1.1522130769
 C          3.4980665539       -1.2321927936        1.6445026081
 C          2.3421067470       -0.4629791320        1.6965018802
 C          1.1376130617       -0.9975620497        1.2719407162
 H          0.2501104979       -0.3862262546        1.3367164367
 N          2.3589533069        0.8632615359        2.1691669468
 S          1.6349586806        2.0462828329        1.2349566104
 O          2.1583459782        3.2880084738        1.7706045570
 O          0.2003209896        1.9140803062        1.2690078901
 C          2.2415590700        1.8391746370       -0.4297163082
 C          1.3712280310        2.0194977614       -1.4826662960
 C          1.8459626397        1.9001004701       -2.7783434426
 C          3.1803017159        1.6023479832       -2.9979355809
 C          4.0470735756        1.4321731636       -1.9296586566
 C          3.5777327963        1.5557859013       -0.6328683330
 H          4.2362383442        1.4355420919        0.2116544556
 H          5.0856929228        1.2005021632       -2.1032265617
 H          3.5459055384        1.5005305481       -4.0076476609
 H          1.1673127727        2.0267737694       -3.6064396957
 H          0.3349961901        2.2308545091       -1.2735183090
 H          3.2580198658        1.1797566655        2.5035930240
 H          4.4372090930       -0.8251963670        1.9874649072
 H          4.3155032533       -3.1286736335        1.1132705023
 H          2.1912358108       -4.0376405568        0.2873370677
 H         -0.8202147266       -3.2044262109        1.0987715000
 C         -0.1250484153       -3.8680337797       -0.8135615376
 C         -0.0676792644       -5.3146884301       -0.4250766411
 C         -1.2930550189       -4.7654591526       -1.0893423600
 H         -1.4998322633       -5.0451515524       -2.1113694072
 H         -2.1794106954       -4.6181411585       -0.4894764499
 H          0.5673170140       -5.9765529049       -0.9946305817
 H         -0.1304229893       -5.5554095514        0.6255464879
 H          0.4656452432       -3.5393322760       -1.6613317231
