  62
        -98.93804567
 C         -1.5655611760       -1.1053040599        0.1744303399
 C         -2.6702511212       -0.8263296661        1.0241352342
 C         -3.4344181119        0.3923195697        0.7337472545
 C         -3.0375765389        1.1878388800       -0.2753771234
 C         -3.7401851894        2.4408880783       -0.7088696198
 C         -4.7815322765        2.1446394641       -1.7972848774
 C         -5.7145419610        0.9814544892       -1.4604361052
 H         -6.4237210225        0.8843692036       -2.2854061742
 H         -5.1342300061        0.0564812449       -1.4262268225
 C         -6.4838790447        1.1450914135       -0.1421063528
 H         -7.5264902310        0.8659946556       -0.3085383920
 H         -6.4746538789        2.1914992840        0.1651503236
 C         -5.9679434122        0.2753419175        1.0059847123
 H         -5.8884920595       -0.7624308278        0.6721118149
 H         -6.7064857168        0.3031940521        1.8115956609
 C         -4.6199640084        0.6942920998        1.6061190344
 H         -4.6475669077        1.7543232029        1.8662393070
 H         -4.4714394297        0.1187079147        2.5243452242
 H         -5.3703308951        3.0479527894       -1.9670781220
 H         -4.2556235968        1.9032502743       -2.7239698759
 H         -4.2212361379        2.8981132720        0.1535649068
 H         -2.9988718266        3.1339822242       -1.1101997651
 O         -1.9636034095        0.9063876381       -1.0513023447
 C         -1.2151322580       -0.2523009876       -0.8731883485
 O         -0.2953630353       -0.3684188471       -1.7028583284
 H          1.4013599677       -1.9092341249       -1.2060197883
 C          1.6267511516       -1.7562750073       -0.1653196514
 C          0.6608391419       -1.9768147320        0.8049834401
 C          1.0016311685       -1.7224055019        2.1328944031
 C          2.2589215364       -1.2611339220        2.4755865994
 C          3.2088854217       -1.0197528193        1.4985542656
 C          2.8790174625       -1.2609750565        0.1727783262
 N          3.8103913130       -0.9607603068       -0.8397363876
 S          4.5303240173        0.5482647561       -0.7455758138
 O          4.8098437169        0.9311330380       -2.1122559659
 O          5.6804033612        0.4707523540        0.1228258258
 C          3.3175868915        1.6425487924       -0.0204463959
 C          3.6736848433        2.4076024382        1.0722410572
 C          2.7340711122        3.2557341306        1.6353397705
 C          1.4561045514        3.3209239416        1.1019528782
 C          1.1151106851        2.5475228707        0.0036133833
 C          2.0516486899        1.7015486375       -0.5683266005
 H          1.7851830822        1.0863080875       -1.4134483678
 H          0.1199099781        2.5828736319       -0.4117902336
 H          0.7202890810        3.9748489732        1.5430809125
 H          2.9981739383        3.8582546160        2.4894726982
 H          4.6751551559        2.3180485056        1.4610137280
 H          3.4470374775       -1.1164336266       -1.7696114923
 H          4.1891951559       -0.6410283834        1.7390590555
 H          2.4990042552       -1.0755231756        3.5111683673
 H          0.2572645641       -1.8765336142        2.9012463691
 C         -0.7641798653       -2.3620032573        0.5007392469
 H         -1.2013145050       -2.7007317641        1.4524572383
 C         -1.0297324433       -3.5007042248       -0.4773511047
 C         -0.6412592490       -3.5267295868       -1.9246945397
 C          0.0270467006       -4.4515142876       -0.9529974118
 H         -0.2158408206       -5.5026445399       -1.0002101457
 H          1.0496599434       -4.2500776608       -0.6741312133
 H         -0.0999507665       -2.6893822821       -2.3321068582
 H         -1.3534958571       -3.9472895730       -2.6210820987
 H         -1.9999826404       -3.9433330240       -0.2657197002
 O         -3.0016480270       -1.5688785246        1.9866900519
