  62
        -98.94729717
 C         -2.2878439692       -0.7265935894        0.2236538410
 C         -1.6012794650       -0.0280707112       -0.7990631895
 C         -1.8654155070        1.4149609727       -0.8798116268
 C         -2.6358218820        2.0065708733        0.0499466493
 C         -3.0240064987        3.4596081391        0.0931387412
 C         -1.9628922903        4.3716034807        0.7226406586
 C         -0.7453897447        4.6532171325       -0.1579321496
 H         -1.0789328476        4.9845175952       -1.1423191988
 H         -0.2047550068        5.4833862840        0.3010967963
 C          0.2174684983        3.4678547155       -0.3112161666
 H          1.2465864768        3.8193399953       -0.1970202217
 H          0.0494909262        2.7416913749        0.4881296727
 C          0.1375350366        2.7496220469       -1.6573495053
 H          0.8477987794        1.9206094760       -1.6323091279
 H          0.4426359670        3.4320844068       -2.4545290902
 C         -1.2467562978        2.1884280799       -2.0068566668
 H         -1.9113128519        2.9997950734       -2.3060159667
 H         -1.1306158086        1.5036176417       -2.8508860982
 H         -2.4463974869        5.3238621611        0.9538210555
 H         -1.6330155965        3.9272907884        1.6650169149
 H         -3.2534444399        3.8087889862       -0.9143546269
 H         -3.9321878561        3.5185953977        0.6972292805
 O         -3.1909623982        1.3182266249        1.0831819797
 C         -3.0312227755       -0.0524001025        1.1947369083
 O         -3.5949799767       -0.5525431353        2.1905553470
 H         -0.1962113932       -1.1866395323        1.8314566437
 C          0.1823114361       -1.9474581861        1.1636192753
 C         -0.6956604272       -2.6183952096        0.3210313096
 C         -0.1859165064       -3.5921143310       -0.5277756801
 C          1.1703974049       -3.8711663871       -0.5378114632
 C          2.0461036985       -3.1693287843        0.2702125129
 C          1.5444857415       -2.1894673871        1.1196423527
 N          2.3923595535       -1.4090043241        1.9349157597
 S          2.4401352393        0.2344403633        1.5988607123
 O          3.3917895976        0.7849960317        2.5406641739
 O          1.1099963459        0.7828262759        1.6442279065
 C          3.1289749120        0.3246008794       -0.0452004015
 C          2.3698908299       -0.0780709057       -1.1264546645
 C          2.9516102380       -0.0712739893       -2.3862433533
 C          4.2674984780        0.3332629069       -2.5443140275
 C          5.0156731689        0.7336461353       -1.4471391101
 C          4.4447776390        0.7238905398       -0.1852319079
 H          4.9863908213        1.0231614384        0.6975995083
 H          6.0392106549        1.0491670765       -1.5701307173
 H          4.7110973737        0.3359169567       -3.5274701856
 H          2.3605999652       -0.3833524147       -3.2323976629
 H          1.3435101001       -0.3837948828       -0.9916678339
 H          3.3393928142       -1.7597300146        1.9886551281
 H          3.1069950761       -3.3678578177        0.2409627557
 H          1.5531677759       -4.6314898726       -1.2013230921
 H         -0.8459074852       -4.1191532619       -1.1968799556
 C         -2.1515800335       -2.2306769502        0.3987824058
 H         -2.4897711389       -2.4235319986        1.4309798541
 C         -3.0513251048       -3.0518198008       -0.5130544090
 C         -4.3236583098       -2.4797244136       -1.0616948207
 C         -3.1770056029       -2.7728542683       -1.9795831869
 H         -3.2657176274       -3.6118677074       -2.6541692552
 H         -2.6126836710       -1.9459635064       -2.3792485353
 H         -5.1953128510       -3.1156960636       -1.1020555059
 H         -4.5471531772       -1.4474133407       -0.8327139524
 H         -3.0900179279       -4.0935485177       -0.2094521778
 O         -0.8230474981       -0.5731619093       -1.6241505359
