  62
        -98.94490359
 C          2.0358001759        1.4246332445        0.1097184472
 C          2.0104714630        0.5649226995       -1.0149953426
 C          2.8735067092       -0.6238617701       -0.9358740014
 C          3.6250814963       -0.8305926474        0.1599119375
 C          4.5019744809       -2.0263288006        0.3900235967
 C          3.7399303642       -3.1468257582        1.1114454430
 C          2.3822554490       -3.4735253162        0.4891327151
 H          1.9578275425       -4.3018035683        1.0600244035
 H          1.7163097941       -2.6169341001        0.6156091103
 C          2.4395336600       -3.8561119298       -0.9964505480
 H          1.8121281817       -4.7353734629       -1.1584004093
 H          3.4579340984       -4.1359067663       -1.2685084107
 C          1.9433354889       -2.7688048393       -1.9516790811
 H          0.9651259049       -2.4075451954       -1.6244128003
 H          1.8151283817       -3.2171096903       -2.9406947658
 C          2.8688527562       -1.5567436479       -2.1145011226
 H          3.8818720054       -1.8930151754       -2.3442966622
 H          2.5027366618       -0.9694578265       -2.9616822961
 H          3.5763991762       -2.8416209262        2.1474257685
 H          4.3663255961       -4.0407598208        1.1154876345
 H          5.3471790108       -1.7179098419        1.0076971341
 H          4.8772224473       -2.3847813921       -0.5666372306
 O          3.6344560555        0.0211775692        1.2157182997
 C          2.8454662012        1.1565850479        1.2196296308
 O          2.9534946944        1.8474030428        2.2521832377
 O          1.3143612295        0.7565647536       -2.0486421281
 C          1.2105374932        2.7002972900        0.2018357540
 C         -0.2340630698        2.3888533527        0.5141045227
 C         -0.7703782302        2.6954521695        1.7595292994
 C         -2.0934895305        2.4088111625        2.0470266238
 C         -2.9067236603        1.8079437197        1.1027759255
 C         -2.3745431821        1.4796046027       -0.1376890074
 C         -1.0494578068        1.7753035285       -0.4262872940
 H         -0.6374035907        1.5068788151       -1.3873071040
 N         -3.1806273094        0.8630276148       -1.1118978973
 S         -4.1142832804       -0.4573936814       -0.6901785653
 O         -4.4919720921       -1.0688027529       -1.9434632586
 O         -5.1961184469       -0.0235394308        0.1580273855
 C         -3.0298235944       -1.5422365269        0.2188708139
 C         -2.2006785768       -2.3863384482       -0.4931631129
 C         -1.3310024029       -3.2133090441        0.1985297174
 C         -1.2928419175       -3.1691651247        1.5839061830
 C         -2.1285295275       -2.3136730778        2.2842905927
 C         -3.0095905434       -1.4930200100        1.5980741446
 H         -3.6857617247       -0.8278501393        2.1086180325
 H         -2.0978286110       -2.2837155315        3.3616139101
 H         -0.6096171624       -3.8087037312        2.1201511348
 H         -0.6848329263       -3.8861636857       -0.3418623997
 H         -2.2625386335       -2.3944402998       -1.5698105186
 H         -2.6893306131        0.6848274601       -1.9761635268
 H         -3.9424796463        1.5897787880        1.3065668210
 H         -2.4982454321        2.6603516549        3.0156019839
 H         -0.1381245453        3.1538954630        2.5062536799
 H          1.6231460556        3.2540917745        1.0553650224
 C          1.3362507111        3.5703057792       -1.0342267134
 C          0.9955573885        5.0254245552       -0.9340761470
 C          2.4231403699        4.5987385449       -1.0966457978
 H          2.9120224191        4.7751658390       -2.0430851775
 H          3.0815419898        4.6829458192       -0.2440198839
 H          0.5011853811        5.4977721889       -1.7690762420
 H          0.6860578063        5.4012069688        0.0295321784
 H          1.0889470276        3.0572642978       -1.9539028168
