  62
        -98.93934870
 C         -1.0441910095       -1.4779045325        0.5854030985
 C         -2.0250075970       -1.4576432607       -0.4338758754
 C         -3.1751329185       -0.5570972261       -0.2200768405
 C         -3.2370630019        0.1781728945        0.9024888632
 C         -4.3300837633        1.1255987503        1.3181988356
 C         -4.0172675441        2.5750920289        0.9138339408
 C         -4.4206211326        2.9528170486       -0.5111647732
 H         -5.5076793299        3.0417236182       -0.5645743332
 H         -4.0047090835        3.9419452210       -0.7168120852
 C         -3.9571084352        1.9809941369       -1.5994601225
 H         -2.9301857204        1.6671729385       -1.4041424435
 H         -3.9583374392        2.5157731623       -2.5510401822
 C         -4.8637914072        0.7471789375       -1.7221640206
 H         -5.1757259689        0.6286311216       -2.7618906651
 H         -5.7734386916        0.9138615479       -1.1453849326
 C         -4.2230025171       -0.5825695389       -1.2993789357
 H         -5.0126921656       -1.2804538684       -1.0006753592
 H         -3.7209607121       -1.0352250732       -2.1601720191
 H         -4.5349686103        3.2471927084        1.6014736082
 H         -2.9459583497        2.7338470121        1.0466243901
 H         -5.2845621819        0.8030499806        0.9120824741
 H         -4.3803003542        1.0756307487        2.4083775764
 O         -2.2502535394        0.1578796539        1.8419391546
 C         -1.1460825917       -0.6640558680        1.7158186647
 O         -0.3414617935       -0.5883776469        2.6665027653
 O         -1.9729979949       -2.1645116677       -1.4733458704
 C          0.1600969759       -2.4058808879        0.5265329947
 C          1.1418304131       -1.9419614049       -0.5228884545
 C          1.0529385853       -2.3289080329       -1.8554144956
 C          1.9743097632       -1.8696649692       -2.7790967050
 C          2.9957764129       -1.0181468973       -2.3985321943
 C          3.0947140478       -0.6259018202       -1.0686793552
 C          2.1714640613       -1.0902735423       -0.1425695832
 H          2.2638187368       -0.7900045990        0.8908488564
 N          4.1317637845        0.2220349259       -0.6519418640
 S          3.8595531124        1.3548366237        0.5427329168
 O          4.8813839570        2.3562234802        0.3214671280
 O          3.8707651219        0.7255974368        1.8385170153
 C          2.2544414735        2.0447846963        0.1867094549
 C          2.0688542219        2.6680706365       -1.0323709658
 C          0.8276526165        3.2048277144       -1.3296039609
 C         -0.2018955868        3.1171352312       -0.4043803433
 C          0.0045487937        2.4967115430        0.8168813033
 C          1.2414577347        1.9490836678        1.1164618790
 H          1.4179767962        1.4394753902        2.0507919970
 H         -0.7875543337        2.4178165293        1.5453077911
 H         -1.1688498315        3.5359901927       -0.6367137636
 H          0.6635640727        3.6895981882       -2.2784156499
 H          2.8939826612        2.7341519977       -1.7226702552
 H          4.7103939044        0.5846790064       -1.3951456177
 H          3.7159413258       -0.6637166827       -3.1199595759
 H          1.8940069544       -2.1769076910       -3.8106681116
 H          0.2460940486       -2.9700091572       -2.1686301706
 H          0.6531940263       -2.3077178262        1.5035120291
 C         -0.2530024681       -3.8532187830        0.3417780057
 C          0.7343591195       -4.9364959938        0.6503145436
 C         -0.4451042871       -4.7183798976        1.5489550867
 H         -1.2430426007       -5.4458409004        1.5401867984
 H         -0.2740582523       -4.2713626052        2.5178750643
 H          0.7487620744       -5.8160659990        0.0252999471
 H          1.7072925859       -4.6357508973        1.0097064570
 H         -0.9313225811       -4.0078227321       -0.4869159081
