  62
        -98.93985746
 C         -2.2359848889       -1.0521368422        0.5281263225
 C         -1.5239093929        0.1140500947        0.8942162769
 C         -2.2771686177        1.3747436520        0.8182042648
 C         -3.5927292463        1.3591223416        0.5462369950
 C         -4.4921933971        2.5601857231        0.4392443732
 C         -4.4471601967        3.2503039573       -0.9312605914
 C         -3.1679970432        4.0353075511       -1.2272667559
 H         -3.3648886222        4.6459828871       -2.1106321113
 H         -2.9601226882        4.7157601316       -0.4011384379
 C         -1.9348779232        3.1616020704       -1.4998818869
 H         -2.2522658026        2.1410939662       -1.7281482636
 H         -1.4098873135        3.5327046602       -2.3832350033
 C         -0.9198339226        3.1165512491       -0.3571410276
 H         -0.1185882894        2.4282928635       -0.6431623410
 H         -0.4784341571        4.1062705068       -0.2193696541
 C         -1.5067634040        2.6499606355        0.9811727721
 H         -2.1415294186        3.4277813768        1.4047839140
 H         -0.6818757221        2.4537527779        1.6699353173
 H         -4.5979613458        2.4964843072       -1.7076142027
 H         -5.2902588734        3.9437085700       -0.9738246670
 H         -5.5097929816        2.2036851153        0.6122632637
 H         -4.2383076338        3.2795557385        1.2183395261
 O         -4.2783398703        0.1992247067        0.3640894569
 C         -3.6213176432       -1.0223739922        0.3288878287
 O         -4.3754851328       -1.9954478456        0.1475497278
 O         -0.3293410686        0.1330347420        1.2871662671
 C         -1.5734013869       -2.4169216650        0.3713842304
 C         -0.1184325766       -2.4224379386        0.7664677905
 C          0.2791712575       -2.8854290769        2.0148278628
 C          1.6178398147       -2.9125882012        2.3632766531
 C          2.5837724335       -2.4784528898        1.4748568529
 C          2.1974139331       -2.0248230807        0.2177880414
 C          0.8585565173       -2.0231847338       -0.1365992086
 H          0.5841454974       -1.6519140555       -1.1100823151
 N          3.1582451945       -1.6081728804       -0.7232214262
 S          3.0879999132       -0.1132285890       -1.4679408856
 O          1.7680897466        0.1251671013       -1.9929087792
 O          4.1627123451       -0.1400699097       -2.4383189974
 C          3.4916998484        1.0816213751       -0.2045297701
 C          4.7255650468        1.7021526978       -0.2505160932
 C          5.0556682441        2.6157514690        0.7369649274
 C          4.1516033247        2.8875116058        1.7528442732
 C          2.9206981539        2.2510055252        1.7861428986
 C          2.5805425653        1.3360711580        0.8006076351
 H          1.6274305991        0.8297527954        0.8104183173
 H          2.2153525695        2.4562617575        2.5758113918
 H          4.4066270401        3.5985469993        2.5229650991
 H          6.0129885901        3.1111243951        0.7115523320
 H          5.3931840155        1.4608632023       -1.0618699897
 H          4.1115031042       -1.7892878051       -0.4410829653
 H          3.6282852861       -2.4888261154        1.7486096948
 H          1.9107833566       -3.2682073351        3.3397645300
 H         -0.4722726526       -3.2093178585        2.7215247716
 H         -2.1171955418       -3.1208731912        1.0197231941
 C         -1.7191821248       -2.9012366072       -1.0675053813
 C         -1.2162933185       -4.2671417933       -1.4357921712
 C         -2.6861291836       -3.9866994441       -1.4220708646
 H         -3.2122313676       -3.9106265460       -2.3617245586
 H         -3.2886506695       -4.3962974936       -0.6266800310
 H         -0.7215199272       -4.3941138035       -2.3866612683
 H         -0.8057817083       -4.8743376336       -0.6433186920
 H         -1.5868870661       -2.1117369455       -1.8013203170
