  62
        -98.94573580
 C          1.5157103626        1.4434599938        0.0169338465
 C          2.4664504781        0.9346525753        0.9320494427
 C          3.2939172501       -0.1789848270        0.4480994417
 C          3.0977549209       -0.6513294609       -0.7970187388
 C          3.8955954851       -1.7585572302       -1.4251299275
 C          3.2709295157       -3.1407691636       -1.1900276608
 C          2.8335579374       -3.3826166094        0.2538611684
 H          2.0444671382       -2.6728708413        0.5139623543
 H          2.3963459475       -4.3825100917        0.3011552028
 C          3.9705711333       -3.2743896975        1.2796888598
 H          3.8938255007       -4.1109817743        1.9775402957
 H          4.9333326706       -3.3619027234        0.7746135185
 C          3.9561405335       -1.9939143101        2.1165105438
 H          2.9641549976       -1.8514587779        2.5534183898
 H          4.6597269092       -2.1222801222        2.9434784260
 C          4.3498427118       -0.7086806753        1.3770814010
 H          4.5066390010        0.0716589124        2.1277219095
 H          5.2908727303       -0.8653631034        0.8455984846
 H          2.3997283684       -3.2470506710       -1.8399046801
 H          3.9969280178       -3.9016897275       -1.4820068413
 H          3.9475236557       -1.5716752336       -2.4990783363
 H          4.9045366267       -1.7360454151       -1.0165435073
 O          2.1337767968       -0.1758326573       -1.6252725340
 C          1.3175336386        0.8819744623       -1.2454132450
 O          0.4825679393        1.2206658095       -2.1011883199
 O          2.6249627429        1.3976066948        2.0950265159
 C          0.6807964098        2.6467484071        0.4187420617
 C         -0.7850175502        2.2938710974        0.4105754227
 C         -1.7478785589        3.0136138120       -0.2832297944
 C         -3.0747088343        2.6179599503       -0.2569628981
 C         -3.4701764990        1.5058716955        0.4622840267
 C         -2.5149911483        0.7828078779        1.1656334376
 C         -1.1879792194        1.1786256002        1.1361724515
 H         -0.4442831470        0.6108547219        1.6822298390
 N         -2.9089949209       -0.3657930972        1.8860177566
 S         -3.6328255093       -1.5660375026        0.9618546659
 O         -4.9992514457       -1.1964046820        0.6941082432
 O         -3.4407738342       -2.7916806834        1.7042505556
 C         -2.6887468087       -1.5821136187       -0.5489757605
 C         -3.1848212298       -0.9668508764       -1.6797519458
 C         -2.3898461144       -0.9085265787       -2.8128408014
 C         -1.1190026664       -1.4598132317       -2.7952747118
 C         -0.6387977302       -2.0794293128       -1.6526552083
 C         -1.4246230206       -2.1356778023       -0.5147243034
 H         -1.0809106000       -2.6093541625        0.3919887167
 H          0.3530482771       -2.5014091495       -1.6399896758
 H         -0.4924667572       -1.3973253131       -3.6705043673
 H         -2.7569575149       -0.4225593547       -3.7021481221
 H         -4.1778533785       -0.5491634171       -1.6529983223
 H         -2.1566169211       -0.7664604188        2.4285027906
 H         -4.4969540369        1.1785653354        0.4869847867
 H         -3.8110551557        3.1843623104       -0.8062805131
 H         -1.4601836765        3.8812440152       -0.8531133041
 H          0.9704751269        2.8683164785        1.4568049424
 C          1.0284374959        3.8394177938       -0.4467932553
 C          0.8406240501        5.2302307785        0.0788657454
 C          2.2211596883        4.6715699098       -0.0864834977
 H          2.8427290097        5.0543117805       -0.8819956409
 H          2.7719026699        4.3927342521        0.8001679379
 H          0.5161148588        6.0011596340       -0.6035013376
 H          0.4542847206        5.3376879484        1.0811287197
 H          0.8460503039        3.6589638590       -1.4999911733
