  62
        -98.94630642
 C         -2.5753783899       -0.0087350817       -0.4170054138
 C         -2.1777840691       -0.5777103553        0.8171213430
 C         -1.8713497146       -2.0132128945        0.7872354527
 C         -1.9675154789       -2.6942432361       -0.3692786739
 C         -1.7491097744       -4.1724628417       -0.5517790961
 C         -0.2804338039       -4.5781391395       -0.7299044875
 C          0.5653193056       -4.5170405049        0.5419495665
 H          0.0576349930       -5.0550838347        1.3433748323
 H          1.4988255586       -5.0432887906        0.3333385323
 C          0.8980889974       -3.0928636588        1.0058909309
 H          0.7496732427       -2.3877148720        0.1840227690
 H          1.9558910788       -3.0295856905        1.2740441609
 C          0.1058650849       -2.6053879707        2.2190139647
 H          0.3929001465       -1.5658828383        2.3986090344
 H          0.3830877680       -3.1926708393        3.0982727388
 C         -1.4183228718       -2.6653279182        2.0583972931
 H         -1.7586591192       -3.7009077081        2.0958714378
 H         -1.8696439720       -2.1164867312        2.8890975068
 H          0.1692281535       -3.9384472997       -1.4931026287
 H         -0.2687471483       -5.6051739209       -1.1026081188
 H         -2.2962430263       -4.4544265379       -1.4541188621
 H         -2.1753609776       -4.7101412173        0.2960039866
 O         -2.3281113641       -2.1033138136       -1.5402257179
 C         -2.6189074697       -0.7505046297       -1.5958881115
 O         -2.9125634987       -0.3340114908       -2.7367596538
 O         -2.1069288740        0.0735016344        1.8929375295
 C         -2.9195866015        1.4668545493       -0.4981068158
 C         -1.7527599370        2.3084603401       -0.0393948256
 C         -1.9037232048        3.4838276505        0.6861617562
 C         -0.7935407687        4.2130119311        1.0753178221
 C          0.4830416287        3.7810799303        0.7661098676
 C          0.6441273314        2.6128614373        0.0303356561
 C         -0.4703633636        1.9021658437       -0.3825156732
 H         -0.3345587071        0.9965745310       -0.9555300371
 N          1.9273985876        2.1407715254       -0.3186628816
 S          2.2103109524        0.4945654483       -0.0344460294
 O          1.5782881346       -0.2830491391       -1.0705501111
 O          1.8661949237        0.1726111940        1.3310238259
 C          3.9801426366        0.4404057684       -0.2474387409
 C          4.8018175146        0.3875354415        0.8621422693
 C          6.1759024938        0.3788010908        0.6788750830
 C          6.7013618753        0.4263001664       -0.6034558423
 C          5.8634959068        0.4782106954       -1.7078460852
 C          4.4890764186        0.4857738031       -1.5314104703
 H          3.7979086836        0.5169493135       -2.3576603674
 H          6.2752240944        0.5125502862       -2.7035775832
 H          7.7707071185        0.4204492735       -0.7436788168
 H          6.8293187025        0.3351096219        1.5352316133
 H          4.3463638721        0.3450558005        1.8385276072
 H          2.6563542709        2.6850505386        0.1263513651
 H          1.3482092014        4.3399078941        1.0903236602
 H         -0.9242252165        5.1226135235        1.6418286092
 H         -2.8906684340        3.8243651721        0.9539339491
 H         -3.0929742944        1.6796272526       -1.5642031718
 C         -4.1962906139        1.7479720107        0.2690944270
 C         -5.1387759893        2.8193214057       -0.1888236784
 C         -5.5075376280        1.3765739969       -0.3535254717
 H         -6.2795319752        0.9626142049        0.2773914069
 H         -5.4778781346        0.9486926354       -1.3453392158
 H         -5.6635017465        3.3973285403        0.5569544111
 H         -4.8719066131        3.3755976283       -1.0747329151
 H         -4.0825853511        1.5824731075        1.3344452662
