  62
        -98.94551291
 C         -1.4538541717       -1.2634318733        0.1122684710
 C         -1.5680410722        0.0289920464       -0.4581396449
 C         -2.6956166937        0.8449094834        0.0210125475
 C         -3.5197565467        0.3566841666        0.9642438318
 C         -4.7315043497        1.0623308999        1.4991659947
 C         -5.9849714006        0.7106912578        0.6852503771
 C         -5.7974557950        0.8387467815       -0.8265114627
 H         -5.0743905850        0.0910686833       -1.1599963034
 H         -6.7534188523        0.5936180539       -1.2942166875
 C         -5.3406469458        2.2274878947       -1.2946897211
 H         -5.9332785853        2.5164302349       -2.1652533313
 H         -5.5326302745        2.9636953553       -0.5132335330
 C         -3.8704697948        2.3049510857       -1.7110522107
 H         -3.7104234240        3.2595833804       -2.2193432736
 H         -3.6502844067        1.5104600556       -2.4283533911
 C         -2.8508381329        2.2184800853       -0.5684370287
 H         -3.1033248011        2.9430625867        0.2089715391
 H         -1.8686249584        2.4862395176       -0.9697247461
 H         -6.7997058131        1.3606986636        1.0094437062
 H         -6.2635998980       -0.3216041923        0.9093862725
 H         -4.8810599594        0.7504591117        2.5343860000
 H         -4.5586749204        2.1367689417        1.4768096483
 O         -3.3667159504       -0.8775076588        1.5085189090
 C         -2.3406605094       -1.7096439753        1.0963550239
 O         -2.3243066677       -2.8192216952        1.6683235186
 O         -0.7870701422        0.4986377272       -1.3266325719
 C         -0.3609255268       -2.2516692674       -0.2541826744
 C          0.9000643893       -2.0471013262        0.5558535669
 C          1.7005832016       -3.1366678197        0.8842631405
 C          2.8644637021       -2.9630198293        1.6093874507
 C          3.2605049824       -1.6998424952        2.0112964712
 C          2.4674344264       -0.6041509300        1.6917146124
 C          1.2952785446       -0.7848071794        0.9693276140
 H          0.6854402635        0.0757721096        0.7480294105
 N          2.8314120381        0.6854991677        2.1051608088
 S          2.6108320499        1.9943990832        1.0832805679
 O          3.4809809561        3.0136527732        1.6335245896
 O          1.2151447066        2.3387615283        1.0035574774
 C          3.2591174175        1.4434779840       -0.4837206730
 C          4.6352580395        1.3803457550       -0.6012396848
 C          5.1896712964        0.8996178663       -1.7750483418
 C          4.3608662616        0.4850812264       -2.8071437465
 C          2.9838427676        0.5586771202       -2.6739015066
 C          2.4198633066        1.0415597126       -1.5017298978
 H          1.3497687586        1.1029661132       -1.3764181920
 H          2.3357661778        0.2406640180       -3.4754179117
 H          4.7898566098        0.1051573313       -3.7209877226
 H          6.2611823764        0.8468397476       -1.8815148583
 H          5.2423353150        1.7249666929        0.2202823099
 H          3.7228076316        0.7386926140        2.5762200115
 H          4.1675408532       -1.5610458459        2.5793709834
 H          3.4716186697       -3.8180411429        1.8641094655
 H          1.3957606173       -4.1267163124        0.5815223949
 H         -0.7591059307       -3.2430409569        0.0055949694
 C         -0.0157388571       -2.2491244315       -1.7325583786
 C          0.4252093299       -3.5154985746       -2.3994490575
 C         -0.9251054837       -2.9397995398       -2.7020956105
 H         -1.0951438324       -2.4809345609       -3.6643112381
 H         -1.7946819167       -3.4394755200       -2.2993078151
 H          1.1913276758       -3.4561733624       -3.1568132713
 H          0.4632967863       -4.4151413458       -1.8046864003
 H          0.4412524810       -1.3241400593       -2.0573087003
