  62
        -98.94386254
 C          1.6598832661        1.4333762084        0.5582819181
 C          2.6407866327        1.0596447948       -0.3927769805
 C          3.4744495149       -0.0979441127       -0.0279485312
 C          3.2106961053       -0.7810172380        1.0998241751
 C          3.9438817137       -2.0095142392        1.5537035260
 C          3.2944479173       -3.2914109945        1.0137416933
 C          3.0102778222       -3.2562606361       -0.4876791029
 H          2.2528689440       -2.4957810491       -0.6905774380
 H          2.5851824883       -4.2247695744       -0.7600943321
 C          4.2413407356       -2.9823087253       -1.3621997060
 H          4.2369034400       -3.6790984631       -2.2029687667
 H          5.1525442400       -3.1692058433       -0.7926650428
 C          4.2921145349       -1.5720217980       -1.9514757931
 H          3.3424246125       -1.3436329794       -2.4413472480
 H          5.0698681799       -1.5513303664       -2.7195538089
 C          4.6039918859       -0.4477090225       -0.9562087075
 H          4.8072182364        0.4579951110       -1.5349615690
 H          5.5017325748       -0.6994748766       -0.3875143129
 H          2.3502681117       -3.4508761712        1.5395427699
 H          3.9531569989       -4.1314093499        1.2419717636
 H          3.9261325999       -2.0357866484        2.6447480157
 H          4.9784122724       -1.9482160940        1.2207683511
 O          2.2017374741       -0.4449378397        1.9446837945
 C          1.4188357074        0.6699692875        1.7045700827
 O          0.5461736746        0.8774318950        2.5721478122
 O          2.8366543214        1.6455688316       -1.4884963892
 C          0.7282729321        2.6242796365        0.3750499399
 C         -0.4794833017        2.1299070815       -0.3821112925
 C         -0.4272468959        1.8228373695       -1.7377354639
 C         -1.5259063321        1.2710800247       -2.3719472244
 C         -2.6889314920        1.0010272723       -1.6704401490
 C         -2.7458582901        1.2997651552       -0.3160315655
 C         -1.6506308379        1.8717757762        0.3149446296
 H         -1.6922551858        2.0819851035        1.3751376139
 N         -3.9064017261        0.9867510289        0.4179493791
 S         -4.4634910738       -0.5850526792        0.2673872444
 O         -5.2898723723       -0.6881995025       -0.9097617674
 O         -5.1208346949       -0.8829796396        1.5206958169
 C         -3.0102508002       -1.6036768463        0.0631884488
 C         -2.9486147710       -2.4826498916       -0.9991048614
 C         -1.8242278223       -3.2780713055       -1.1488863927
 C         -0.7798741941       -3.1744107801       -0.2433969411
 C         -0.8525380167       -2.2803498747        0.8133839619
 C         -1.9789833620       -1.4904327482        0.9747124296
 H         -2.0452660105       -0.7931869530        1.7949960409
 H         -0.0363484978       -2.1798703475        1.5123852934
 H          0.0965500348       -3.7918522030       -0.3599530639
 H         -1.7626235033       -3.9726358211       -1.9710487062
 H         -3.7792640676       -2.5231536938       -1.6848404674
 H         -3.8428216584        1.2428279270        1.3931183271
 H         -3.5468498365        0.5534897337       -2.1460715413
 H         -1.4739084664        1.0357594586       -3.4240098768
 H          0.4905619116        1.9908042968       -2.2797140971
 H          0.3960211130        2.9014974485        1.3848789533
 C          1.3722187439        3.8373965526       -0.2591367335
 C          0.7127493298        5.1716060696       -0.0864054905
 C          1.9990980820        4.8736046467        0.6224297015
 H          2.9018557674        5.3591764291        0.2837476141
 H          1.9671046760        4.7110584912        1.6902682848
 H          0.7294070057        5.8646914616       -0.9132396804
 H         -0.1922743915        5.2114664238        0.5013468107
 H          1.8595216081        3.6348158876       -1.2023208971
