  62
        -98.93269593
 C         -2.2426386775       -1.4381975565        0.5076338075
 C         -2.2585151245       -0.4892580353       -0.5418904837
 C         -3.1816373521        0.6552157946       -0.3843178291
 C         -3.8914890913        0.7776087527        0.7505964807
 C         -4.8868031831        1.8422948128        1.1370708462
 C         -4.4899265310        3.2960801162        0.8366655841
 C         -5.3055085933        3.9275474703       -0.2928600111
 H         -6.3436689376        3.6035886648       -0.1947583778
 H         -5.2893544068        5.0127909451       -0.1702964101
 C         -4.8097191602        3.6152272442       -1.7036807323
 H         -5.5499461500        4.0031321306       -2.4073604353
 H         -3.8759478003        4.1520118756       -1.8856054691
 C         -4.5782959152        2.1327796685       -2.0034614315
 H         -5.3711339520        1.5260860129       -1.5674563333
 H         -4.6333111905        1.9994051560       -3.0859170370
 C         -3.2071645997        1.6171571799       -1.5407464109
 H         -2.5466190776        2.4590139050       -1.3106448914
 H         -2.7208466764        1.0778179856       -2.3599211214
 H         -4.6590542389        3.8813604448        1.7421009568
 H         -3.4253064918        3.3518879804        0.6124374058
 H         -5.8429061744        1.6133136587        0.6600734483
 H         -5.0359004589        1.7129888943        2.2115417670
 O         -3.7985782839       -0.1321759699        1.7635104345
 C         -2.9822128951       -1.2444011575        1.6753626717
 O         -2.9903767771       -1.9672115992        2.6922391305
 O         -1.5473493913       -0.5796473732       -1.5754580400
 C         -1.3427439364       -2.6624223860        0.4688976846
 C          0.0452594326       -2.2566556981        0.0369074734
 C          0.6869781239       -2.7575513425       -1.0870927698
 C          1.9540106915       -2.3135632090       -1.4238615115
 C          2.6082012738       -1.3722885854       -0.6507246653
 C          1.9739114731       -0.8623996271        0.4746965993
 C          0.7076014332       -1.3122311493        0.8121918703
 H          0.2087390501       -0.9085431192        1.6862682428
 N          2.6338670529        0.0892310175        1.2751468196
 S          3.2507080159        1.4589168116        0.5214019980
 O          3.3084374395        2.4629559595        1.5627581322
 O          2.4999528593        1.8058475022       -0.6627982464
 C          4.9102650799        0.9858377767        0.0828480198
 C          5.7460756219        0.5383345387        1.0873100362
 C          7.0425992844        0.1711001563        0.7644747226
 C          7.4795767145        0.2594419483       -0.5490248538
 C          6.6292579895        0.7143305461       -1.5451693890
 C          5.3305559343        1.0825152775       -1.2291033793
 H          4.6313896978        1.4358251732       -1.9703984225
 H          6.9705553637        0.7829944143       -2.5655777972
 H          8.4890408813       -0.0275038329       -0.7978971265
 H          7.7066801264       -0.1831387406        1.5363340062
 H          5.3676339520        0.4883169084        2.0945922586
 H          2.1090972437        0.3543624353        2.0965673109
 H          3.5920898018       -1.0204642968       -0.9148665984
 H          2.4382074544       -2.7042114926       -2.3058920681
 H          0.1835714792       -3.4725787910       -1.7164870255
 H         -1.2804499419       -2.9972534924        1.5179070865
 C         -1.9075874087       -3.8322244402       -0.3223110761
 C         -3.3878690576       -4.0353683305       -0.4426493462
 C         -2.5825575279       -3.6594402879       -1.6482560544
 H         -2.4183603634       -4.4109121732       -2.4067867943
 H         -2.6709044447       -2.6580784983       -2.0378789370
 H         -3.7749079224       -5.0407880185       -0.3720935968
 H         -4.0322069305       -3.2878645745       -0.0024527533
 H         -1.3109291601       -4.7299227032       -0.1926215055
