  62
        -98.93218877
 C         -2.3794387572       -0.8947947651        0.8628509039
 C         -3.3301954683       -0.6794270518       -0.1632414261
 C         -4.2188489765        0.4856650938        0.0059837665
 C         -4.0645608552        1.2900869056        1.0709166804
 C         -4.8747031361        2.4998953431        1.4652731791
 C         -5.2834236798        3.4756384114        0.3539872103
 C         -4.2619125145        3.6281477327       -0.7824619303
 H         -3.3177438730        3.1567082395       -0.5039041936
 H         -4.0618474913        4.6895983160       -0.9401346001
 C         -4.7512235086        3.0408325752       -2.1083905554
 H         -4.1780174746        3.4885362373       -2.9238258492
 H         -5.7970594990        3.3214397444       -2.2514951535
 C         -4.6176466293        1.5243822822       -2.2415787924
 H         -3.5622976605        1.2501905078       -2.3259817123
 H         -5.1002385178        1.2248950424       -3.1750597517
 C         -5.2217708877        0.7036856506       -1.0904338835
 H         -5.4636491806       -0.2893680594       -1.4787146744
 H         -6.1342137647        1.1612598275       -0.7161223929
 H         -5.4460364088        4.4441329122        0.8300560647
 H         -6.2399328759        3.1695382607       -0.0670904915
 H         -5.7731967460        2.1513752645        1.9830041408
 H         -4.2617037168        3.0227093381        2.2034398186
 O         -3.0998753355        1.0717110214        2.0101899696
 C         -2.2398317620       -0.0066657677        1.9298140720
 O         -1.4035698368       -0.0655550708        2.8553906570
 H          0.6980994793       -0.4975177590        1.0890527289
 C          0.6716479103       -0.9301466874        0.0964625219
 C         -0.3668679898       -1.7948344542       -0.2289446807
 C         -0.4046951130       -2.3405463008       -1.5050020243
 C          0.5740019664       -2.0181293125       -2.4298847275
 C          1.6044552270       -1.1554353770       -2.1045887416
 C          1.6523359006       -0.6056045873       -0.8293199827
 N          2.6925152403        0.2826538647       -0.4903528724
 S          4.2552761904       -0.1995637782       -0.9228333423
 O          4.4692381699        0.1467561804       -2.3058110227
 O          4.4567763847       -1.5904827537       -0.5832631205
 C          5.2516481844        0.8458632868        0.1200819513
 C          5.7677073948        0.3339672403        1.2952661279
 C          6.5301431803        1.1586584675        2.1075176103
 C          6.7590339861        2.4744105711        1.7341501460
 C          6.2334399591        2.9738747583        0.5515942793
 C          5.4716717572        2.1544761875       -0.2660242417
 H          5.0523555659        2.4956328284       -1.1980770445
 H          6.4161557173        3.9966894837        0.2641064032
 H          7.3534770443        3.1136337550        2.3676625347
 H          6.9424418620        0.7722745803        3.0257170303
 H          5.5716646561       -0.6974934503        1.5411325336
 H          2.6558664145        0.5448677246        0.4857588962
 H          2.3764430211       -0.9070572779       -2.8150931379
 H          0.5340653841       -2.4461069117       -3.4204321810
 H         -1.2087013208       -3.0031502956       -1.7789612492
 C         -1.4146500906       -2.0699723647        0.8232380459
 H         -0.9104793100       -2.0721293790        1.7995495497
 C         -2.1266662791       -3.3938354642        0.6467470100
 C         -1.3880520043       -4.6628238883        0.9446486175
 C         -2.4809300405       -4.1991040663        1.8590538081
 H         -3.4153385135       -4.7399146840        1.8623292961
 H         -2.2050729130       -3.7996574943        2.8243477428
 H         -0.3676164091       -4.5762191223        1.2870710346
 H         -1.5696184127       -5.5245497488        0.3208757485
 H         -2.8334243574       -3.3975396059       -0.1727045045
 O         -3.4579868864       -1.4232880541       -1.1691786244
