  62
        -98.93465649
 C         -2.6340071049       -0.9745720892        0.7042633888
 C         -2.9883284198        0.2552486398        1.3172945094
 C         -4.3467602668        0.7442732638        1.0632954073
 C         -5.1826930148        0.0156375555        0.3018977562
 C         -6.6113447471        0.3572781629       -0.0243154039
 C         -6.7691019623        1.3189476400       -1.2098913075
 C         -6.3667131784        2.7672428011       -0.9292901653
 H         -6.7305205259        3.3686523191       -1.7647934547
 H         -6.8759391219        3.1168302282       -0.0306578262
 C         -4.8541928415        2.9870628840       -0.7850547205
 H         -4.3190388010        2.1303531167       -1.2016732962
 H         -4.5559602935        3.8621207631       -1.3669571343
 C         -4.3797568488        3.2150279713        0.6502883515
 H         -3.2918899403        3.3209901586        0.6375659308
 H         -4.8049175713        4.1454553157        1.0332490146
 C         -4.7339833904        2.0805985262        1.6206701893
 H         -5.7987783500        2.1022232783        1.8520920910
 H         -4.1703514180        2.2308609234        2.5446417803
 H         -6.1868350256        0.9354563891       -2.0509855494
 H         -7.8218574427        1.3065151903       -1.5015071319
 H         -7.0964832191        0.7803816804        0.8558259547
 H         -7.1056878374       -0.5835168446       -0.2760685602
 O         -4.8138283544       -1.1652624830       -0.2571187666
 C         -3.5301591165       -1.6803020597       -0.1002024395
 O         -3.3473332292       -2.7467335055       -0.7140042886
 O         -2.2025172778        0.9073880272        2.0564291988
 C         -1.2254548995       -1.4753324963        0.9658807678
 C         -0.2610237670       -0.9734277760       -0.0793080686
 C         -0.5435227149       -1.0825892271       -1.4368686536
 C          0.3622986471       -0.6298971343       -2.3793455541
 C          1.5622224706       -0.0607073662       -1.9911376316
 C          1.8550334962        0.0527894645       -0.6387034902
 C          0.9443415567       -0.4050611510        0.3061573933
 H          1.1688290418       -0.3025473293        1.3593614375
 N          3.0664608465        0.6428889898       -0.2376399333
 S          4.4595549835        0.1719336634       -1.0736981421
 O          4.5529473439        0.9533094957       -2.2810530634
 O          4.4648718074       -1.2631068126       -1.2472000047
 C          5.7321913339        0.6671884986        0.0704519238
 C          6.1666923286        1.9790433953        0.0600043753
 C          7.1391097702        2.3685718178        0.9672671712
 C          7.6569567318        1.4461072614        1.8644087391
 C          7.2116103425        0.1327154922        1.8617476867
 C          6.2385067702       -0.2635823636        0.9579010390
 H          5.8703138482       -1.2761508338        0.9133268672
 H          7.6181677334       -0.5827448045        2.5583202611
 H          8.4148016790        1.7517022044        2.5684025381
 H          7.4902976193        3.3878014633        0.9711861616
 H          5.7425145505        2.6583000520       -0.6608338302
 H          3.2048721970        0.5917580389        0.7625302194
 H          2.2777512403        0.2895372161       -2.7176698835
 H          0.1323180565       -0.7229460147       -3.4304908575
 H         -1.4745341621       -1.5344850743       -1.7452246944
 H         -0.9405392028       -1.0086728017        1.9226135776
 C         -1.1461579514       -2.9831318554        1.1605666154
 C         -0.5419035859       -3.9197286851        0.1627682591
 C          0.1724953281       -3.6384088191        1.4484256742
 H          0.2134460901       -4.4113275041        2.2006816029
 H          1.0578087434       -3.0221831637        1.3964121827
 H         -1.0183040594       -4.8782424691        0.0255900324
 H         -0.1352954779       -3.5060539756       -0.7467826547
 H         -2.0040152770       -3.3609711675        1.7078349758
