  62
        -98.94612178
 C         -1.4146740681       -0.8385252377       -0.0836559090
 C         -2.5025836668       -0.8439045748        0.8278530035
 C         -3.4562984899        0.2633057520        0.7172848948
 C         -3.2477059542        1.2296715416       -0.1948856653
 C         -4.1069999030        2.4461445368       -0.4101596598
 C         -5.3246276813        2.2012873326       -1.3119939194
 C         -6.4480346412        1.3796070869       -0.6783514232
 H         -6.7168196866        1.8166312664        0.2838427152
 H         -7.3180263547        1.4696628700       -1.3318003944
 C         -6.1187268275       -0.1086550263       -0.4966091768
 H         -5.2605574262       -0.3697988525       -1.1200328610
 H         -6.9610467370       -0.7126476450       -0.8412472413
 C         -5.8252210944       -0.5214583193        0.9457512385
 H         -5.5709216145       -1.5843204598        0.9531917918
 H         -6.7209391038       -0.3850414445        1.5556774648
 C         -4.6681505971        0.2455973334        1.5994001633
 H         -4.9781335330        1.2626332435        1.8396395042
 H         -4.3963454882       -0.2656796864        2.5262080887
 H         -5.7279866263        3.1789345934       -1.5860189176
 H         -4.9868741025        1.7124490808       -2.2287453630
 H         -4.4379262832        2.8344405979        0.5537592529
 H         -3.4691261024        3.1955803666       -0.8844686802
 O         -2.1851556650        1.2143042607       -1.0389814433
 C         -1.2495059477        0.1866069338       -1.0166285436
 O         -0.3543076546        0.3199746215       -1.8732874523
 O         -2.6684752399       -1.7439774373        1.6953227310
 C         -0.4340500493       -1.9885770904        0.0400708903
 C          0.7139693648       -1.6698121631        0.9721294485
 C          1.2762500497       -2.6724563415        1.7556757229
 C          2.3388601352       -2.3973336697        2.5959662091
 C          2.8685291625       -1.1212278250        2.6649363341
 C          2.3122209970       -0.1103124261        1.8898701087
 C          1.2417580419       -0.3906973809        1.0510687190
 H          0.8117704849        0.4095053025        0.4703982442
 N          2.8125361798        1.1978214053        1.9574791700
 S          2.9176445277        2.1369522876        0.5754821022
 O          3.8613262568        3.1758210404        0.9346136857
 O          1.6098459090        2.5895923307        0.1762495041
 C          3.6567824804        1.0591308886       -0.6374498422
 C          2.9037128652        0.4976573234       -1.6471145344
 C          3.5222794800       -0.3798239938       -2.5261764659
 C          4.8670856381       -0.6796409259       -2.3816957415
 C          5.6104173285       -0.1011417149       -1.3634257378
 C          5.0007466284        0.7743239857       -0.4813465055
 H          5.5445982579        1.2566502653        0.3147076583
 H          6.6579597405       -0.3314162244       -1.2549173426
 H          5.3382134601       -1.3654529990       -3.0680984723
 H          2.9402285454       -0.8243353487       -3.3181728330
 H          1.8557517979        0.7388722947       -1.7385715668
 H          3.6307187156        1.3068915354        2.5387558730
 H          3.6961813272       -0.9024026229        3.3218515563
 H          2.7611626381       -3.1829651587        3.2033628619
 H          0.8641882367       -3.6690485384        1.7148352776
 H         -1.0075757128       -2.8078466021        0.4970592207
 C          0.1194849610       -2.4736359838       -1.2867987828
 C          0.4762840940       -3.9176306858       -1.4645502239
 C         -0.7233251623       -3.3506907996       -2.1614452762
 H         -0.6860739647       -3.1985373406       -3.2294492330
 H         -1.7026219566       -3.6244372437       -1.7958950205
 H          1.3462629513       -4.1617477640       -2.0539868409
 H          0.3035379464       -4.5876813903       -0.6365823534
 H          0.7420299175       -1.7380295215       -1.7785086155
