  62
        -98.94621600
 C          1.8164897052        1.0085181190       -0.3063321572
 C          3.1725878936        1.3004810459       -0.0253380491
 C          4.1413003586        0.2715671820       -0.4193544714
 C          3.7131332149       -0.8523654521       -1.0229689389
 C          4.5816257541       -1.9821933589       -1.5063034039
 C          4.9507942433       -2.9981801621       -0.4165179707
 C          5.9713346967       -2.5081981463        0.6115319776
 H          6.3003909368       -3.3817835162        1.1777834225
 H          6.8441137737       -2.1088046354        0.0940230510
 C          5.4281251906       -1.4604388311        1.5931525220
 H          4.3359636077       -1.4735488931        1.5717816934
 H          5.7315245319       -1.7214663993        2.6095252733
 C          5.9107437489       -0.0341953395        1.3289670933
 H          5.4374714010        0.6290732178        2.0575763422
 H          6.9914889933        0.0208258642        1.4772697213
 C          5.5831182881        0.4930890077       -0.0741757043
 H          6.2289560592        0.0206046539       -0.8139776552
 H          5.7657720513        1.5704735318       -0.0869372654
 H          4.0373801895       -3.3080861515        0.0961995629
 H          5.3652652136       -3.8761198171       -0.9173453399
 H          5.4912040012       -1.5796952403       -1.9530639375
 H          4.0135890863       -2.5003101671       -2.2819043234
 O          2.4005973641       -1.0882464576       -1.2886603620
 C          1.4203131835       -0.1751680647       -0.9272693414
 O          0.2607401948       -0.5290356503       -1.2110128801
 O          3.5530939528        2.3666782025        0.5282407169
 C          0.7525060942        2.0238878721        0.0673845022
 C         -0.2841621117        1.3917541868        0.9617284577
 C          0.1366464872        0.7155062007        2.1051334837
 C         -0.7768738098        0.1193629005        2.9515880133
 C         -2.1319492409        0.1782214646        2.6731900224
 C         -2.5636478290        0.8571205415        1.5412724634
 C         -1.6425282591        1.4687782492        0.6998606188
 H         -2.0090496579        1.9849369630       -0.1709042954
 N         -3.9358693993        0.9628641910        1.2479199847
 S         -4.5265983191        0.4842118713       -0.2433300723
 O         -3.8943649502        1.2417546608       -1.2910882868
 O         -5.9616678952        0.6282800921       -0.1274684176
 C         -4.1176775443       -1.2480898177       -0.3654754148
 C         -2.8235660551       -1.6250241204       -0.6635315146
 C         -2.5175096922       -2.9773191759       -0.6961580899
 C         -3.4976404056       -3.9214744183       -0.4338623933
 C         -4.7926981674       -3.5243438728       -0.1354235260
 C         -5.1060447821       -2.1759331610       -0.0956938372
 H         -6.0989955233       -1.8204629041        0.1280007218
 H         -5.5551076670       -4.2593915354        0.0668144081
 H         -3.2501111131       -4.9710363898       -0.4633730172
 H         -1.5060690732       -3.2716862961       -0.9279032313
 H         -2.0656191066       -0.8852365183       -0.8680970113
 H         -4.5360068431        0.5982343936        1.9747124072
 H         -2.8481777181       -0.2926950875        3.3294041550
 H         -0.4334126426       -0.4017643175        3.8324899701
 H          1.1958801083        0.6634985062        2.3183182272
 H          1.2781104903        2.7999337779        0.6439891140
 C          0.1732904629        2.6587074410       -1.1793747278
 C         -0.3787140419        4.0509231580       -1.1300600564
 C          0.9158092367        3.7822431767       -1.8354361643
 H          0.9365077484        3.8265709295       -2.9140804637
 H          1.8323516521        4.1099992965       -1.3667845836
 H         -1.2523852850        4.2772367506       -1.7229603771
 H         -0.3425090916        4.5695344074       -0.1838576254
 H         -0.3182730296        1.9412474720       -1.8282304821
