  62
        -98.93965811
 C          1.4820195498        1.5818766801        0.2407464302
 C          1.6746217798        0.4735904000        1.1031789900
 C          2.8883567200       -0.3382963698        0.9013098601
 C          3.7465580901        0.0190662605       -0.0718854197
 C          5.0241498903       -0.6736274993       -0.4595263396
 C          4.7827738206       -1.9337562792       -1.3151955198
 C          3.5276637806       -2.7293031894       -0.9592038902
 H          2.6714061005       -2.0520846795       -0.9591572102
 H          3.3595585208       -3.4607581493       -1.7538414004
 C          3.5902538205       -3.4899039696        0.3645874796
 H          2.6165335105       -3.9581525498        0.5309571494
 H          4.3293242406       -4.2898594695        0.2746715296
 C          3.9505228901       -2.6626500998        1.5975705799
 H          4.9880850001       -2.3439030797        1.5431597101
 H          3.8729077101       -3.3229908700        2.4667483797
 C          3.0388652099       -1.4710833400        1.8873610999
 H          3.3623174397       -1.0169608301        2.8327645101
 H          2.0223343399       -1.8348615602        2.0751055397
 H          5.6596576906       -2.5786498791       -1.2438047098
 H          4.6820256507       -1.6155879890       -2.3550902398
 H          5.6066443503        0.0396831009       -1.0460666793
 H          5.5928127101       -0.9066958094        0.4367566805
 O          3.5166689801        1.0804075406       -0.8894976995
 C          2.3953553700        1.8835850704       -0.7699816395
 O          2.3527541400        2.8037853006       -1.6087836094
 O          0.8605097197        0.1707394497        2.0183976998
 C          0.2364512197        2.4209526599        0.4735915802
 C         -0.8662761501        2.0217080999       -0.4777479601
 C         -0.7804211299        2.2726467302       -1.8436191101
 C         -1.8066734897        1.8919297002       -2.6882170503
 C         -2.9253130897        1.2422336000       -2.1953120307
 C         -3.0178219799        0.9811423897       -0.8337830907
 C         -1.9945724901        1.3821680397        0.0148374395
 H         -2.0847928703        1.1813835895        1.0715721395
 N         -4.1422126799        0.3282275195       -0.3020982311
 S         -3.9366655200       -0.8979999607        0.8199642388
 O         -5.2053822599       -1.5936110909        0.8221904284
 O         -3.5153135503       -0.3482507109        2.0820044389
 C         -2.6782975597       -1.9434040004        0.1118081288
 C         -1.3553744398       -1.7960521903        0.4742839891
 C         -0.4028870596       -2.5809393201       -0.1568188209
 C         -0.7802704893       -3.4916693399       -1.1298921512
 C         -2.1156189792       -3.6316774400       -1.4777867114
 C         -3.0730056194       -2.8481863103       -0.8559486815
 H         -4.1222462093       -2.9326790104       -1.0888326517
 H         -2.4098321489       -4.3444907199       -2.2310902016
 H         -0.0292504691       -4.0949804297       -1.6152823111
 H          0.6328476204       -2.4643629500        0.1196059593
 H         -1.0711895900       -1.0848124204        1.2343383092
 H         -4.8327141797        0.0666382095       -0.9911791412
 H         -3.7227775495        0.9424051000       -2.8580245609
 H         -1.7316095795        2.0959532905       -3.7455908703
 H          0.1019973801        2.7545961904       -2.2350689898
 H         -0.0973956905        2.1631372697        1.4883243700
 C          0.4915278795        3.9143336599        0.4232671605
 C         -0.4928072507        4.8358536697        1.0762673105
 C          0.8637859492        4.6365306298        1.6815180707
 H          1.5814208591        5.4408749999        1.6205204710
 H          0.9361364191        4.0559476896        2.5900057006
 H         -0.7099235708        5.7794029698        0.5998076906
 H         -1.3406414908        4.3893655595        1.5745066102
 H          0.9598639896        4.2448858302       -0.4941307894
