  62
        -98.94403407
 C         -2.2014231027       -1.3893748573       -0.0975832388
 C         -2.5385987856       -0.3486928687       -0.9967403283
 C         -3.8771555161        0.2372440223       -0.8258426205
 C         -4.6939619044       -0.2390741780        0.1305533945
 C         -6.0549496313        0.3065969183        0.4493084967
 C         -5.9766707464        1.3946529437        1.5294861229
 C         -4.9169597254        2.4623480970        1.2565616136
 H         -4.9749188148        3.1923857091        2.0668678224
 H         -3.9259473970        2.0049727227        1.3085345620
 C         -5.0719442941        3.1818818920       -0.0905946636
 H         -6.0822952835        3.0359545381       -0.4745816958
 H         -4.9370790616        4.2539510158        0.0679507811
 C         -4.0590246389        2.7593429647       -1.1564402348
 H         -3.0479809734        2.8162907249       -0.7442353689
 H         -4.1159172373        3.4747291045       -1.9813793114
 C         -4.2603607671        1.3590851706       -1.7494943044
 H         -5.2928112459        1.2469658189       -2.0864330482
 H         -3.6030418976        1.2698214525       -2.6193799621
 H         -5.7433852179        0.9185303354        2.4846400342
 H         -6.9570502240        1.8666722169        1.6156381970
 H         -6.6768578007       -0.5119972837        0.8154374157
 H         -6.5007514594        0.7112005059       -0.4571943247
 O         -4.3450506159       -1.2553950943        0.9593888354
 C         -3.0923347059       -1.8376699226        0.8818736354
 O         -2.8942215482       -2.7383118850        1.7213932495
 O         -1.7772053638        0.0785952399       -1.9042082401
 C         -0.8329638080       -2.0549829231       -0.1170451585
 C          0.1754701704       -1.0688840427        0.4211894568
 C          0.4118569470       -1.0124772356        1.7917676184
 C          1.2846908627       -0.0793890295        2.3203225931
 C          1.9367428496        0.8198261184        1.4947659802
 C          1.7075901285        0.7706998568        0.1258731067
 C          0.8441775070       -0.1790319235       -0.4057215727
 H          0.6573954453       -0.1918895552       -1.4676147196
 N          2.3549967319        1.6844388815       -0.7188340517
 S          3.9637153557        2.0390922279       -0.4499947626
 O          4.0807340034        3.0007553539        0.6186037905
 O          4.4793233195        2.4586891022       -1.7342096995
 C          4.7089264395        0.4954945613        0.0468348771
 C          5.3135521740        0.3883522600        1.2825253165
 C          5.8656934661       -0.8265968064        1.6560815432
 C          5.8010165143       -1.9086373435        0.7923987345
 C          5.1925767654       -1.7844456525       -0.4474814994
 C          4.6399390646       -0.5721190219       -0.8263626385
 H          4.1646379679       -0.4418953113       -1.7852376250
 H          5.1443095384       -2.6275006729       -1.1178049827
 H          6.2275915718       -2.8548876156        1.0856028620
 H          6.3407535429       -0.9253118661        2.6188254306
 H          5.3401475571        1.2543870230        1.9237790223
 H          2.1440251374        1.5663461361       -1.6981067530
 H          2.6019411758        1.5693027579        1.8919073381
 H          1.4555953578       -0.0463694117        3.3855831976
 H         -0.1130220782       -1.7002505089        2.4399499300
 H         -0.8988901459       -2.8903138921        0.5921604809
 C         -0.4771530234       -2.6072240399       -1.4818673298
 C          0.6587594440       -3.5770360033       -1.6009444642
 C         -0.7522611830       -4.0493918326       -1.7788452604
 H         -1.0880496293       -4.3157023727       -2.7699827123
 H         -1.1956405895       -4.6456984202       -0.9946419286
 H          1.2942456649       -3.5227459184       -2.4714838530
 H          1.1739471941       -3.8528764558       -0.6934000038
 H         -0.6298152184       -1.9023441525       -2.2886757821
