  62
        -98.94105368
 C          2.0514600598        0.3845975832       -0.0185366446
 C          3.1304063533        1.1620546176        0.4776952508
 C          4.3442867035        0.4280023675        0.8568975316
 C          4.3527111148       -0.9141361018        0.7689087102
 C          5.5349848375       -1.7865143454        1.0741359861
 C          6.3850226155       -2.0293631646       -0.1809318000
 C          6.7274141070       -0.7544772746       -0.9520477420
 H          7.3536281086       -1.0449261299       -1.7983851654
 H          5.8090480577       -0.3295516215       -1.3638472697
 C          7.4525313485        0.3144134846       -0.1223966728
 H          7.8758886491       -0.1377482612        0.7752190127
 H          8.2844311255        0.7087596434       -0.7098006947
 C          6.5819119283        1.5081799545        0.2743327762
 H          6.0835266040        1.9084427072       -0.6123200598
 H          7.2371420919        2.2925655223        0.6623210215
 C          5.5173970135        1.2314559253        1.3434111003
 H          5.9807168862        0.7515621630        2.2078993777
 H          5.1086392961        2.1945930011        1.6629283304
 H          7.3054841306       -2.5341861539        0.1180123956
 H          5.8338743235       -2.6958471612       -0.8485867275
 H          6.1374590364       -1.3150552624        1.8482777889
 H          5.1680931211       -2.7450296597        1.4452362595
 O          3.2828942581       -1.6309010617        0.3448280885
 C          2.1081316480       -1.0096062760       -0.0670346663
 O          1.2281661889       -1.8071516082       -0.4386123391
 O          3.0782626377        2.4148446488        0.5996901835
 C          0.7925855163        1.1299510041       -0.4283686030
 C         -0.4131404740        0.5080198187        0.2268097089
 C         -0.6181017201        0.7082957002        1.5889539256
 C         -1.6932773615        0.1288218970        2.2354767905
 C         -2.5880013612       -0.6624362427        1.5369638775
 C         -2.3934581253       -0.8661948052        0.1773267481
 C         -1.3195655020       -0.2719284007       -0.4733566249
 H         -1.1665522896       -0.4576875234       -1.5248743668
 N         -3.2952331244       -1.6698802011       -0.5358008086
 S         -4.9301907231       -1.5126521610       -0.2413657296
 O         -5.2879283443       -2.2300873970        0.9573178206
 O         -5.5777415971       -1.9542849413       -1.4568091165
 C         -5.1929712441        0.2357390490        0.0033634168
 C         -5.6852797311        0.6986024692        1.2063108552
 C         -5.8560120673        2.0628180729        1.3809679126
 C         -5.5295013550        2.9361890563        0.3556064579
 C         -5.0385837585        2.4555378542       -0.8489510384
 C         -4.8673859443        1.0929299547       -1.0293287176
 H         -4.4947926217        0.6862980595       -1.9556992881
 H         -4.7867523753        3.1372550989       -1.6454272207
 H         -5.6587639461        3.9979809237        0.4942110115
 H         -6.2395418413        2.4390136064        2.3156568194
 H         -5.9251546850       -0.0150401062        1.9776592440
 H         -3.0865867370       -1.7646600424       -1.5177898545
 H         -3.4191128752       -1.1416318289        2.0284114169
 H         -1.8351453662        0.2884945848        3.2935555192
 H          0.0870771769        1.3166437483        2.1385245766
 H          0.9278884185        2.1371285723       -0.0014684950
 C          0.6301863264        1.3189134890       -1.9292628360
 C          1.8275176646        1.5471307051       -2.8013907567
 C          1.0333397099        0.2840914187       -2.9350398985
 H          0.4175389768        0.1597740167       -3.8144234466
 H          1.4601042434       -0.6371288352       -2.5708164950
 H          1.7626958128        2.2846533028       -3.5870647498
 H          2.7999730027        1.4906155916       -2.3341462896
 H         -0.2545398613        1.9029686167       -2.1647093270
