  62
        -98.93366057
 C          2.1005210477        0.6722188518        0.7955838275
 C          2.8743802593       -0.4973056526        0.9930311932
 C          4.2928557474       -0.4532052193        0.5902605620
 C          4.7783092338        0.6898504279        0.0717109808
 C          6.1659666116        0.9665734815       -0.4424988352
 C          6.4195424183        0.3436892438       -1.8249692607
 C          5.9084050812       -1.0852082763       -1.9899803060
 H          6.0455141007       -1.3680724179       -3.0370611321
 H          4.8361443120       -1.1089077319       -1.7864178004
 C          6.6114889381       -2.1316775073       -1.1287027492
 H          7.6777869727       -2.1332897241       -1.3658884405
 H          6.2074642363       -3.1076859077       -1.4098391424
 C          6.4514914228       -1.9707785541        0.3844845034
 H          7.0960487008       -1.1832482174        0.7656189747
 H          6.7919072232       -2.9013667449        0.8481858355
 C          5.0167719554       -1.7512921569        0.8546553572
 H          4.9804917592       -1.8927311239        1.9418755903
 H          4.3786216370       -2.5413858708        0.4423603010
 H          7.4916227814        0.3749954916       -2.0262360866
 H          5.9174012984        0.9639379543       -2.5713160044
 H          6.9049084834        0.6276900669        0.2774921491
 H          6.2578366496        2.0515553395       -0.5280842973
 O          3.9998540160        1.7943305198       -0.0970815516
 C          2.6559142786        1.8256966016        0.2409992440
 O          2.1047280302        2.9144469515       -0.0007659004
 O          2.3974365291       -1.5527963899        1.4938022597
 C          0.6451240635        0.6050736865        1.2176123652
 C         -0.2417559637        0.1600741690        0.0819164398
 C         -0.1110012132        0.6980773427       -1.1951129416
 C         -0.9372454950        0.2800658138       -2.2221043134
 C         -1.9252299272       -0.6617246744       -1.9910529034
 C         -2.0698446425       -1.1981529046       -0.7180893425
 C         -1.2218054164       -0.7961574848        0.3049987827
 H         -1.3414324294       -1.2362386896        1.2831632856
 N         -3.0822150782       -2.1384119640       -0.4314345476
 S         -4.2870108830       -1.6319006655        0.6185106659
 O         -3.7028109501       -1.2680107066        1.8821937941
 O         -5.2606038776       -2.6993972692        0.6328885139
 C         -4.9757063975       -0.1940230448       -0.1830844728
 C         -6.0643319484       -0.3499835451       -1.0189758477
 C         -6.5495591423        0.7544012913       -1.7006767072
 C         -5.9336776806        1.9871463429       -1.5444419630
 C         -4.8394337457        2.1264589575       -0.7044086145
 C         -4.3523066642        1.0264871183       -0.0162110021
 H         -3.5073144542        1.1005801822        0.6483141613
 H         -4.3591925998        3.0840929162       -0.5816135826
 H         -6.3087763867        2.8456882009       -2.0787703141
 H         -7.4021342473        0.6504104554       -2.3523470073
 H         -6.5142623881       -1.3258027075       -1.1068380586
 H         -3.5080502830       -2.5377776421       -1.2568327183
 H         -2.5762659618       -0.9820761732       -2.7905843910
 H         -0.8191359495        0.7012581095       -3.2087997707
 H          0.6404586857        1.4531581251       -1.3699118742
 H          0.6104575195       -0.1861218324        1.9839043210
 C          0.1454635148        1.8895282983        1.8671564494
 C         -0.9054203220        2.7600862211        1.2524309202
 C         -1.2315954153        1.9372306806        2.4609301020
 H         -1.3668941736        2.4393095574        3.4072084734
 H         -1.8596706729        1.0655526703        2.3393452601
 H         -0.7972920421        3.8278026560        1.3655326955
 H         -1.3156964705        2.4640184204        0.2994936864
 H          0.9299054665        2.3980765093        2.4176514106
