  62
        -98.93832880
 C         -2.1831884053       -0.8872081804       -0.0736713517
 C         -2.9184396980       -0.2173570431        0.9295297217
 C         -3.7467677541        0.9206918038        0.4939456416
 C         -3.7514378897        1.2739026898       -0.8053702063
 C         -4.4577407348        2.4025579112       -1.5274573254
 C         -5.6029295051        3.1619278581       -0.8622097830
 C         -6.8669468278        2.3362568057       -0.6254473237
 H         -7.5752823662        2.9503041427       -0.0649916227
 H         -7.3187591601        2.1070469631       -1.5937721118
 C         -6.6636119773        1.0149112741        0.1116888627
 H         -6.0408855292        0.3502543095       -0.4906022688
 H         -7.6408032061        0.5351298805        0.2132804909
 C         -6.0571983243        1.1316836950        1.5087676716
 H         -6.1197625110        0.1459912196        1.9777808334
 H         -6.6478508751        1.8254991052        2.1100746545
 C         -4.5836893823        1.5726319485        1.5567286059
 H         -4.4922042507        2.6552786463        1.5085462182
 H         -4.1661512643        1.2518004142        2.5158687493
 H         -5.8660244854        3.9802409267       -1.5380422519
 H         -5.2663391046        3.6167738263        0.0648321078
 H         -4.8131792618        1.9737217500       -2.4697006015
 H         -3.6745859104        3.1213726737       -1.7931480348
 O         -2.9956927816        0.6158695203       -1.7331717848
 C         -2.2051128905       -0.4734064585       -1.4043045899
 O         -1.5860642966       -0.9675712056       -2.3641657957
 O         -2.8771108848       -0.5469063348        2.1469813012
 C         -1.3264082886       -2.0791207878        0.3074373631
 C          0.1235359025       -1.8254475909       -0.0264566810
 C          0.9502926511       -2.7832579143       -0.5986716517
 C          2.2791635170       -2.4971056854       -0.8608517668
 C          2.8127396084       -1.2583923100       -0.5584134358
 C          1.9989201762       -0.2966450874        0.0262656855
 C          0.6705123268       -0.5884340120        0.2928138659
 H          0.0394048281        0.1629380598        0.7531021271
 N          2.5321926777        0.9697488691        0.3314483548
 S          3.9080225070        1.0206098294        1.2960112081
 O          3.9690602621       -0.1149373793        2.1872261852
 O          3.8853617580        2.3264752296        1.9185320419
 C          5.2523272088        0.9554943493        0.1310163144
 C          5.3105613028        1.9255381018       -0.8503998084
 C          6.3541919594        1.8930128127       -1.7613949196
 C          7.3172140791        0.8984652981       -1.6745563383
 C          7.2462140305       -0.0661088047       -0.6811726882
 C          6.2044249141       -0.0397877619        0.2330653373
 H          6.1043777089       -0.7714218958        1.0188125462
 H          7.9957987819       -0.8382322554       -0.6154229380
 H          8.1276522049        0.8752794479       -2.3858525689
 H          6.4124682670        2.6411543806       -2.5354908408
 H          4.5438184693        2.6817565246       -0.8810367981
 H          1.8431888485        1.6230668184        0.6755535240
 H          3.8444498534       -1.0292613198       -0.7692185196
 H          2.9075209097       -3.2499661434       -1.3115657049
 H          0.5534955740       -3.7547565427       -0.8431335657
 H         -1.4100197443       -2.1610088775        1.4022066419
 C         -1.8789810127       -3.3435327195       -0.3173695358
 C         -1.7216207739       -4.6632056026        0.3753592372
 C         -3.0651786833       -4.0025846269        0.3181806357
 H         -3.8245596109       -4.4264236297       -0.3216193566
 H         -3.4556081929       -3.5547395570        1.2205979934
 H         -1.5607260551       -5.5454508882       -0.2256506889
 H         -1.2023491928       -4.6722589685        1.3218835316
 H         -1.8388428184       -3.3222485275       -1.4006791174
