  62
        -98.93358124
 C          2.6007968865        0.9231123536        0.3735751797
 C          2.6587150439       -0.1869310599        1.2477523850
 C          3.4456081025       -1.3453131597        0.7919238367
 C          4.0357023142       -1.2963860021       -0.4151865113
 C          4.8363970963       -2.3772853461       -1.0873924413
 C          3.9417517729       -3.2263698948       -2.0063229586
 C          3.2438085149       -4.4000100196       -1.3200890636
 H          2.5471727711       -4.8308340695       -2.0428319251
 H          3.9835280398       -5.1668441948       -1.0807940454
 C          2.4739863432       -4.0480326685       -0.0443987315
 H          1.9183105900       -3.1204857171       -0.1952364034
 H          1.7419218972       -4.8381662429        0.1333206373
 C          3.3785940360       -3.9221690290        1.1906891049
 H          4.3621803119       -4.3273628976        0.9541712667
 H          2.9764613605       -4.5381381858        1.9977057627
 C          3.5283481747       -2.5004435879        1.7525832471
 H          2.7333129072       -2.3115113667        2.4807965079
 H          4.4744056891       -2.4310867370        2.2997798267
 H          3.1960929520       -2.5632861675       -2.4528096207
 H          4.5524607864       -3.6244282077       -2.8191927914
 H          5.5847694834       -1.8721317338       -1.7015025641
 H          5.3448103105       -2.9943902343       -0.3525918166
 O          3.9268712900       -0.2201334654       -1.2410632604
 C          3.2073697140        0.9071887153       -0.8825730538
 O          3.1918958419        1.8000792861       -1.7495917414
 O          2.0696791994       -0.2133317025        2.3636614637
 C          1.8069308281        2.1451994797        0.8038372318
 C          0.5670880156        2.2495453861       -0.0507814642
 C          0.3376203518        3.2753464186       -0.9565771261
 C         -0.8162532087        3.2841450299       -1.7223599100
 C         -1.7609671884        2.2825752589       -1.5996448958
 C         -1.5459458999        1.2556287103       -0.6881869500
 C         -0.3903262094        1.2493186537        0.0778865608
 H         -0.2167400361        0.4506592488        0.7886901462
 N         -2.4965182349        0.2219649543       -0.5585448078
 S         -4.1105594630        0.7019610578       -0.3945225018
 O         -4.6181615544        1.0488357856       -1.6979302727
 O         -4.2223273296        1.7272911222        0.6194891642
 C         -4.8695679033       -0.8101793802        0.1630440021
 C         -5.2094401914       -1.7672674211       -0.7740966915
 C         -5.7856711535       -2.9512700068       -0.3424341775
 C         -6.0107476596       -3.1573810107        1.0106764347
 C         -5.6646591003       -2.1871361753        1.9390879530
 C         -5.0865014398       -1.0011557995        1.5143453760
 H         -4.8105946921       -0.2157930337        2.1999171651
 H         -5.8431667925       -2.3488427945        2.9899971744
 H         -6.4617409754       -4.0786913203        1.3439971939
 H         -6.0584840079       -3.7073148119       -1.0609083964
 H         -5.0255823022       -1.5589065649       -1.8150819119
 H         -2.2474290154       -0.4170170203        0.1852521944
 H         -2.6645985427        2.2866786351       -2.1872602600
 H         -0.9820381475        4.0846755369       -2.4277430782
 H          1.0643275925        4.0621712585       -1.0718800275
 H          1.4859237224        1.9333655554        1.8339729733
 C          2.6620153825        3.3930255650        0.8100216930
 C          2.2305790145        4.5799914975        1.6166849148
 C          3.4043644449        3.7601178395        2.0585866363
 H          4.3938188185        4.1815206195        1.9638046892
 H          3.2850225246        3.1164450814        2.9179319008
 H          2.4135570846        5.5672950208        1.2209264545
 H          1.3109982076        4.4941163935        2.1758629562
 H          3.1610032229        3.5707471702       -0.1350080400
