  62
        -98.93908242
 C          2.1783887363        0.9732912062       -0.0752409128
 C          3.0543218760        0.5718144860        0.9641337144
 C          3.8769968488       -0.6304000630        0.7345783711
 C          3.7366957380       -1.2936819676       -0.4279513823
 C          4.4784143489       -2.5151751884       -0.9015316417
 C          5.9103933832       -2.1978963810       -1.3626957208
 C          6.6845654235       -1.2500552686       -0.4503507086
 H          7.6331445864       -1.0183006496       -0.9417148831
 H          6.1317940632       -0.3137457018       -0.3553436909
 C          7.0000848996       -1.7974246971        0.9395588751
 H          7.5850620427       -2.7143087798        0.8388582490
 H          7.6262796814       -1.0577615593        1.4448667929
 C          5.7932365772       -2.0874855912        1.8343115071
 H          5.3078743451       -3.0172904154        1.5499518877
 H          6.1696626952       -2.2328119929        2.8511023792
 C          4.7681505016       -0.9601733307        1.9078249226
 H          4.0881799955       -1.1613226329        2.7444988799
 H          5.2788587709       -0.0268646245        2.1707182265
 H          5.8509819397       -1.7344344707       -2.3505259563
 H          6.4557953817       -3.1377117766       -1.4634856084
 H          4.4793690218       -3.2744056050       -0.1249472436
 H          3.9181821605       -2.9114351661       -1.7515155907
 O          2.8721894129       -0.8796209598       -1.3965458402
 C          2.0753821599        0.2415733195       -1.2573203364
 O          1.3491234514        0.4621979881       -2.2482943468
 H         -0.6449757195        1.3343548658       -1.4877742612
 C         -0.9596673077        1.3373547430       -0.4552980060
 C         -0.0777909400        1.7648990079        0.5270073122
 C         -0.4874107289        1.7152493603        1.8552104051
 C         -1.7479616429        1.2522922065        2.1876415084
 C         -2.6217331865        0.8213123082        1.2051466269
 C         -2.2158172691        0.8525734270       -0.1222231831
 N         -3.0884705652        0.3887664957       -1.1269318889
 S         -3.6562572653       -1.1850489157       -0.9505448409
 O         -2.7306474684       -2.0040633514       -0.2007547269
 O         -3.9751147897       -1.6320954878       -2.2891455112
 C         -5.1719440198       -0.9830649705       -0.0362599981
 C         -6.1460988374       -0.1589289959       -0.5653080848
 C         -7.3329809813        0.0060721663        0.1305638763
 C         -7.5260887425       -0.6543642882        1.3349465559
 C         -6.5401396367       -1.4815776967        1.8505676096
 C         -5.3498339093       -1.6499896008        1.1600068726
 H         -4.5519440558       -2.2774650117        1.5243265192
 H         -6.6917740316       -1.9948739599        2.7865178014
 H         -8.4505164446       -0.5239554115        1.8750243350
 H         -8.1021992020        0.6480937403       -0.2673887014
 H         -5.9567768501        0.3318944602       -1.5052456330
 H         -2.7085146120        0.5087129866       -2.0561191777
 H         -3.6017787251        0.4503602502        1.4572425814
 H         -2.0524340279        1.2220725363        3.2227064868
 H          0.2019983484        2.0242668335        2.6277499226
 C          1.3231066682        2.2053123911        0.1772008653
 H          1.7584914269        2.6777534618        1.0677445809
 C          1.3570921032        3.2020628118       -0.9629253970
 C          0.8964350722        4.6057294176       -0.7115547665
 C          2.3519140989        4.3216828070       -0.9264919337
 H          2.8091133044        4.6332216095       -1.8537054594
 H          3.0139032221        4.3748546620       -0.0745510423
 H          0.3511163219        5.1159502043       -1.4904791987
 H          0.5705653350        4.8507912631        0.2878986367
 H          1.1430994902        2.7654393251       -1.9297682111
 O          3.1578666025        1.2020960777        2.0506045175
