  62
        -98.94393355
 C          2.1079364443        1.3222066714        0.2046682093
 C          2.1496762902        0.3419361625        1.2293649444
 C          2.9382332233       -0.8630099236        0.9485560282
 C          3.5735556766       -0.9692111371       -0.2326354789
 C          4.3966400555       -2.1485305301       -0.6614906079
 C          3.5519979756       -3.1721280697       -1.4318400237
 C          2.2387353913       -3.5384762406       -0.7404379050
 H          1.5845480679       -2.6635760659       -0.7280822801
 H          1.7552823209       -4.2978282274       -1.3582940660
 C          2.3963109232       -4.0735634098        0.6895017820
 H          1.7504862619       -4.9459452316        0.8090498201
 H          3.4219213574       -4.4082296972        0.8493980316
 C          2.0117225041       -3.0802283144        1.7880043328
 H          1.0280232180       -2.6555531681        1.5717480142
 H          1.9345841060       -3.6292093564        2.7303612196
 C          2.9924560601       -1.9221712177        2.0129246207
 H          4.0067164639       -2.3115790537        2.1217972878
 H          2.7143905488       -1.4247319896        2.9466712083
 H          3.3159864929       -2.7563698422       -2.4139740079
 H          4.1522677011       -4.0718985961       -1.5790308794
 H          5.1971363571       -1.7895644528       -1.3106849175
 H          4.8382884114       -2.6135884076        0.2178195976
 O          3.5006475431       -0.0181707399       -1.1956111007
 C          2.7437811063        1.1331552488       -1.0232323883
 O          2.7378524789        1.8788588190       -2.0202123997
 O          1.5562666872        0.4747245976        2.3342966509
 C          1.2808821142        2.5684973595        0.4805544549
 C         -0.0901552608        2.3694447615       -0.1192960680
 C         -0.3726071267        2.6475259852       -1.4516960165
 C         -1.6363769369        2.4053302351       -1.9606484852
 C         -2.6388314199        1.8843490347       -1.1608428148
 C         -2.3608533296        1.5863109997        0.1669692281
 C         -1.0927918943        1.8309800281        0.6763869816
 H         -0.8708138767        1.5868425708        1.7067134261
 N         -3.3647629949        1.0657425280        1.0023815543
 S         -4.3324996511       -0.1901122521        0.4755188803
 O         -5.2054288369        0.2836110128       -0.5686115305
 O         -4.9750956608       -0.6895751116        1.6691799491
 C         -3.2160908190       -1.4182732503       -0.1750388007
 C         -2.9808844683       -1.4810816843       -1.5334462375
 C         -2.0883800449       -2.4258228771       -2.0145971227
 C         -1.4528898759       -3.2874049068       -1.1344488224
 C         -1.6986607125       -3.2109592604        0.2280191515
 C         -2.5846011831       -2.2643496864        0.7153763461
 H         -2.8103166119       -2.1809913992        1.7665242703
 H         -1.2032866440       -3.8846589742        0.9088940126
 H         -0.7641272901       -4.0262118729       -1.5117919275
 H         -1.8933360107       -2.4879134237       -3.0731703562
 H         -3.5053851649       -0.8045794433       -2.1875679575
 H         -3.0527630516        0.8964682584        1.9475598483
 H         -3.6304400582        1.7069404594       -1.5442182297
 H         -1.8463253188        2.6292851699       -2.9956738963
 H          0.4078511393        3.0311288585       -2.0891372158
 H          1.1617565156        2.5953797067        1.5723850073
 C          1.9427370632        3.8570781574        0.0430220040
 C          1.4182790172        5.1540202953        0.5801019566
 C          2.7488633660        4.6372982155        1.0360543358
 H          3.6426644246        5.1368927004        0.6937369356
 H          2.8270635269        4.2444867302        2.0395131461
 H          1.3956070700        6.0115714869       -0.0744732540
 H          0.5920384814        5.1091575141        1.2737822550
 H          2.3019948572        3.8418186091       -0.9769553432
