  62
        -98.94635985
 C          1.3509083229        1.1221774786       -0.1102470802
 C          2.4099993380        1.0332936423        0.8289914567
 C          3.1772994477       -0.2183027257        0.8241021173
 C          2.8240748842       -1.2002733418       -0.0252344531
 C          3.5543735858       -2.5025119636       -0.1784188773
 C          4.6427981082       -2.4048625117       -1.2569080279
 C          5.5551248291       -1.1874173319       -1.1088472056
 H          6.2998781687       -1.2403653241       -1.9060121449
 H          4.9703071009       -0.2800449591       -1.2761269431
 C          6.2658839576       -1.0877704822        0.2480722297
 H          6.2467251743       -2.0563327863        0.7490920319
 H          7.3139430950       -0.8329453267        0.0768197913
 C          5.6954585567       -0.0214394231        1.1849892459
 H          5.6290902015        0.9329412957        0.6564258332
 H          6.3955632424        0.1126389882        2.0139691260
 C          4.3215687680       -0.3337075177        1.7914547429
 H          4.3399141755       -1.3234182796        2.2520709122
 H          4.1286995344        0.4058942608        2.5740126778
 H          5.2427079595       -3.3162613499       -1.2254743883
 H          4.1578147253       -2.3508629867       -2.2342424179
 H          3.9982083584       -2.7798698710        0.7757167854
 H          2.8380858617       -3.2703305469       -0.4744511157
 O          1.7822068067       -1.0935662732       -0.8856086705
 C          1.0218868206        0.0637885537       -0.9583092800
 O          0.1125584519        0.0136694237       -1.8077142258
 O          2.7017196204        1.9607525799        1.6301613513
 C          0.5316048557        2.4035028717       -0.1303565473
 C         -0.8204240311        2.0902073046        0.4588390912
 C         -1.0049949748        2.1616574508        1.8364433350
 C         -2.2071379484        1.7892520224        2.4094987457
 C         -3.2436909461        1.3165162390        1.6230532810
 C         -3.0617438119        1.2278375530        0.2498381188
 C         -1.8679789073        1.6351868872       -0.3278035735
 H         -1.7400028207        1.5496889563       -1.3949225416
 N         -4.0910813911        0.6900758137       -0.5550957358
 S         -4.4993580396       -0.8998938628       -0.2108642118
 O         -5.1947138600       -1.3837977540       -1.3821163308
 O         -5.2438711535       -0.9303887019        1.0234733220
 C         -2.9490573138       -1.7573488917       -0.0049204179
 C         -2.3100086514       -2.2477590125       -1.1252226134
 C         -1.0836420047       -2.8737348929       -0.9782118576
 C         -0.5140738683       -2.9833910990        0.2800547141
 C         -1.1633606813       -2.4772002946        1.3949820888
 C         -2.3952537209       -1.8597665972        1.2553256971
 H         -2.9354058190       -1.4639610467        2.0995063806
 H         -0.7112683203       -2.5581327447        2.3708288566
 H          0.4455827639       -3.4630437481        0.3934915985
 H         -0.5691812843       -3.2565779181       -1.8446790067
 H         -2.7824997334       -2.1408393967       -2.0884869073
 H         -3.8848751235        0.7653126444       -1.5420444109
 H         -4.1794975821        0.9954203546        2.0513867267
 H         -2.3371757996        1.8587707296        3.4788673308
 H         -0.1858715681        2.4989921410        2.4556931139
 H          1.0506591628        3.0911690621        0.5502121214
 C          0.4681000008        3.0353634628       -1.5049368374
 C         -0.0131521032        4.4486142513       -1.6359014627
 C          1.4335545801        4.1259920736       -1.8555490271
 H          1.8243197826        4.1639160568       -2.8614650450
 H          2.1445866784        4.4276254974       -1.1003951246
 H         -0.6177722587        4.7117076964       -2.4903344853
 H         -0.2851181621        4.9673452190       -0.7290744665
 H          0.2090920299        2.3381419553       -2.2917673030
