  62
        -98.94057700
 C         -2.5750045693        0.2762149231        0.4707363421
 C         -2.1934914924        0.9062875756       -0.7380787009
 C         -1.5069326472        2.1983540983       -0.6038649450
 C         -1.2594640379        2.6852792294        0.6253067614
 C         -0.4300749986        3.9009198433        0.9266529401
 C          1.0648167163        3.5416642510        0.7943815748
 C          1.7911356226        4.2753121055       -0.3332364090
 H          2.7631685592        3.7934917360       -0.4570157202
 H          1.9679148491        5.3094597333       -0.0286305354
 C          1.0698995872        4.2984222396       -1.6844870274
 H          1.8072759770        4.5952849013       -2.4333988625
 H          0.3031525543        5.0750801882       -1.6768550680
 C          0.4251825067        2.9778985776       -2.1256965116
 H          0.9085317979        2.1257072847       -1.6468115550
 H          0.5746918382        2.8685404689       -3.2021623718
 C         -1.0919095290        2.8920654181       -1.8711129316
 H         -1.5467030876        2.3039525438       -2.6736341964
 H         -1.5300480293        3.8938805480       -1.9018007250
 H          1.1469729105        2.4625942416        0.6387074127
 H          1.5764771540        3.7599692087        1.7337347434
 H         -0.6591012077        4.2108210186        1.9466525488
 H         -0.6935977396        4.7079289193        0.2464493392
 O         -1.6674100508        2.0651419774        1.7645102130
 C         -2.3100694063        0.8394521063        1.7168596910
 O         -2.5983401590        0.3634697081        2.8360186482
 O         -2.4109411533        0.4101389363       -1.8753924864
 C         -3.1572669678       -1.1266798933        0.4370971928
 C         -2.1382942412       -2.0364810130       -0.2093106558
 C         -2.4411240796       -2.9699616082       -1.1911151002
 C         -1.4327130334       -3.7150640223       -1.7795042889
 C         -0.1103771994       -3.5338656320       -1.4191192017
 C          0.1995905127       -2.6173305463       -0.4197206244
 C         -0.8148536066       -1.9024848398        0.1921062511
 H         -0.5625736862       -1.1955852959        0.9704675269
 N          1.5279132459       -2.4058998469       -0.0079064975
 S          1.9541551016       -0.8437037638        0.4782696287
 O          1.6186836556       -0.6846435106        1.8722652427
 O          1.4111791689        0.1377189609       -0.4314736456
 C          3.7266736748       -0.9276915994        0.3023845988
 C          4.4531772759       -1.6082661314        1.2614533314
 C          5.8281426984       -1.7030057414        1.1178763488
 C          6.4504670127       -1.1183983116        0.0244844672
 C          5.7086496702       -0.4365284203       -0.9281239905
 C          4.3323809984       -0.3401035788       -0.7917275495
 H          3.7144478949        0.1834971896       -1.5036676959
 H          6.1949623799        0.0204801666       -1.7747351468
 H          7.5209509111       -1.1921310181       -0.0839610084
 H          6.4082359472       -2.2299225717        1.8580848406
 H          3.9259853515       -2.0358060630        2.0983503554
 H          2.2040615587       -2.7896232276       -0.6544538646
 H          0.6757708463       -4.0924670003       -1.9038287909
 H         -1.6795752461       -4.4317821030       -2.5480753606
 H         -3.4627347278       -3.1016178769       -1.5080890058
 H         -3.2783190977       -1.4324633629        1.4872014190
 C         -4.5102826585       -1.1463785756       -0.2405601167
 C         -5.5266950934       -2.1807078306        0.1372177295
 C         -5.7202456046       -0.7536964459        0.5508476946
 H         -6.4882106065       -0.1723431230        0.0633569524
 H         -5.5682903214       -0.4935586990        1.5885902245
 H         -6.1679589025       -2.5794241750       -0.6342208028
 H         -5.2532704047       -2.8948890530        0.8992602654
 H         -4.4610291739       -0.8243713632       -1.2740858144
