  62
        -98.94793841
 C         -1.1319545351       -1.1858577078        0.4768062533
 C         -1.5279067257       -0.4746662298       -0.6813572516
 C         -2.3046525367        0.7489971603       -0.4382385172
 C         -2.4883954198        1.1859276961        0.8206324898
 C         -3.2170371252        2.4388578470        1.2250610211
 C         -4.7367949094        2.2604025514        1.3471867354
 C         -5.4812548472        2.1056491046        0.0202166685
 H         -6.5465390695        2.2025869987        0.2386659254
 H         -5.2099440517        2.9259186541       -0.6449369192
 C         -5.2422716709        0.7641118379       -0.6871205678
 H         -4.8236733161        0.0475329488        0.0235106735
 H         -6.1973896419        0.3562190324       -1.0254637710
 C         -4.3259747223        0.8450364063       -1.9083211069
 H         -4.8012102406        1.4519150965       -2.6819870609
 H         -4.1949960331       -0.1648004007       -2.3049099776
 C         -2.9350995051        1.4258900254       -1.6189038248
 H         -2.2994230276        1.2398435998       -2.4879848539
 H         -3.0103236551        2.5009854810       -1.4546944961
 H         -4.9360374290        1.3929239287        1.9809025647
 H         -5.1284916343        3.1421394193        1.8596613707
 H         -2.8234327560        2.7256401848        2.2028451386
 H         -2.9994574086        3.2384644043        0.5163510021
 O         -1.9986607192        0.5245844555        1.9050876640
 C         -1.3631866780       -0.6998562731        1.7639012125
 O         -1.0513540549       -1.2444362602        2.8431609282
 H          1.5521669788       -1.0022258045        1.2623423180
 C          1.8316775581       -1.4759384382        0.3319412518
 C          0.9280147633       -2.3191791375       -0.3050952096
 C          1.3116081016       -2.9372756010       -1.4874527646
 C          2.5679508627       -2.7053909065       -2.0202731904
 C          3.4616956217       -1.8616264508       -1.3880761036
 C          3.0913654231       -1.2451327846       -0.1970401909
 N          3.9979332535       -0.4164862661        0.4852246442
 S          3.5044375962        1.0211872849        1.1740856307
 O          4.7411110167        1.7184426106        1.4547512896
 O          2.6440357331        0.7749704826        2.3025759290
 C          2.6229214680        1.8756988058       -0.1171450620
 C          1.2442620733        1.9038028925       -0.1104628244
 C          0.5842046627        2.5527924987       -1.1418143506
 C          1.3094645937        3.1487541062       -2.1611802403
 C          2.6957825336        3.1105982779       -2.1550479645
 C          3.3607519569        2.4684913799       -1.1241303473
 H          4.4366797108        2.4326073284       -1.0701353640
 H          3.2565502167        3.5786213019       -2.9479070915
 H          0.7877093710        3.6475244503       -2.9624571976
 H         -0.4929566265        2.5770615867       -1.1430473171
 H          0.7090437454        1.4261812672        0.6962477926
 H          4.8876938995       -0.3030730137        0.0212015476
 H          4.4422298959       -1.6854458439       -1.8030955403
 H          2.8535176107       -3.1877754555       -2.9425374037
 H          0.6271769535       -3.5962274594       -1.9947003680
 C         -0.4184950063       -2.5204012332        0.3473272224
 H         -0.2395488644       -2.8658958974        1.3761866150
 C         -1.3017451162       -3.5274368124       -0.3587510764
 C         -1.0904114717       -4.9936125227       -0.1353385415
 C         -2.2916701557       -4.3120757808        0.4463422795
 H         -3.2610444420       -4.5157007885        0.0165524110
 H         -2.3163406496       -4.1362779205        1.5124537192
 H         -0.2992753058       -5.2867612796        0.5382186736
 H         -1.2375266819       -5.6693000308       -0.9641299248
 H         -1.6118042556       -3.1979965575       -1.3432173156
 O         -1.2623430263       -0.8395070188       -1.8546409575
