  62
        -98.93151360
 C         -2.1941725140       -0.7793137761        0.1268853926
 C         -3.5295347735       -1.1736871190        0.3855230398
 C         -4.6045633255       -0.3760084753       -0.2359144352
 C         -4.2644578482        0.6860575239       -0.9889335222
 C         -5.1721244659        1.6606524134       -1.6912313006
 C         -5.8124655944        2.6728637732       -0.7274889130
 C         -6.3430000350        2.0747994565        0.5728894735
 H         -5.5279608841        1.5666321437        1.0915000927
 H         -6.6666996804        2.9018139972        1.2103686794
 C         -7.5217475630        1.1171278910        0.4159368143
 H         -7.8499920470        0.8399549473        1.4209200566
 H         -8.3471049999        1.6424490719       -0.0696905382
 C         -7.2403883644       -0.1697907006       -0.3625217996
 H         -7.2171436619        0.0161032603       -1.4329180963
 H         -8.0799866262       -0.8478181817       -0.1837054220
 C         -5.9814441660       -0.9149570800        0.0699385863
 H         -6.0064326504       -1.9222135511       -0.3634462857
 H         -6.0098012312       -1.0692604817        1.1545657797
 H         -6.6204479134        3.1851724701       -1.2524406350
 H         -5.0542064896        3.4154572208       -0.4670924768
 H         -4.5519378131        2.2056353337       -2.4064307549
 H         -5.9317339955        1.1247552917       -2.2525826947
 O         -2.9652296825        1.0543127646       -1.1785852997
 C         -1.9021432418        0.3536452092       -0.6324976561
 O         -0.7877602524        0.8450573454       -0.8950939650
 O         -3.8221832858       -2.1558406928        1.1193473093
 C         -1.0833675298       -1.6029325816        0.7526875960
 C         -0.0530413552       -0.6995582733        1.3815025155
 C         -0.4350349118        0.0977893701        2.4573318696
 C          0.4650564161        0.9609592710        3.0500391058
 C          1.7641631602        1.0457020938        2.5818892223
 C          2.1594828709        0.2474270537        1.5148732731
 C          1.2541497900       -0.6252678344        0.9271604074
 H          1.5741587696       -1.2132820060        0.0846340585
 N          3.4938774706        0.2883347610        1.0671658607
 S          3.8824209477        0.1934357026       -0.5724098755
 O          3.3465848919        1.3268083696       -1.2935512828
 O          3.5441793643       -1.1145788953       -1.0710024364
 C          5.6570208022        0.3420888185       -0.4480634779
 C          6.2583521240        1.5645978771       -0.6789986700
 C          7.6343693345        1.6712281878       -0.5498107251
 C          8.3817943285        0.5599280481       -0.1906501407
 C          7.7646207588       -0.6613557398        0.0363294382
 C          6.3895536518       -0.7743925944       -0.0923308175
 H          5.8673495211       -1.7034090603        0.0657666944
 H          8.3493324405       -1.5240501575        0.3122490156
 H          9.4522333858        0.6455122267       -0.0902385730
 H          8.1168901465        2.6184567513       -0.7295538699
 H          5.6380112023        2.3989044219       -0.9651280079
 H          4.0011343892        1.0616118028        1.4783073115
 H          2.4665505465        1.7272241219        3.0381233717
 H          0.1529301670        1.5795362443        3.8782820734
 H         -1.4552898667        0.0405918395        2.8128265944
 H         -1.5817543320       -2.1653784188        1.5605145157
 C         -0.4763307935       -2.6362036267       -0.1839516472
 C         -1.2818922451       -3.2635713232       -1.2808073634
 C         -0.1572689620       -2.3324697689       -1.6158473020
 H          0.7519129750       -2.7398915150       -2.0345054149
 H         -0.3914129762       -1.3447239777       -1.9825206786
 H         -1.1530934860       -4.3179586802       -1.4732949185
 H         -2.2935019281       -2.9120957984       -1.4231326223
 H          0.2179480483       -3.2910191234        0.3345936946
