  62
        -98.93847399
 C          2.5867610892        1.1675578354        0.1962217307
 C          2.6487303610        0.3021496777       -0.9205848282
 C          3.4563068005       -0.9204624026       -0.7577228647
 C          4.0788300037       -1.1538230739        0.4128355649
 C          4.9896369135       -2.2844178006        0.8441255748
 C          5.0284952564       -3.5966446234        0.0642182283
 C          3.7324365281       -4.4054315028        0.0997154325
 H          3.8544461875       -5.2712643151       -0.5547221668
 H          3.5803167665       -4.7762254343        1.1166525147
 C          2.4700128849       -3.6497270516       -0.3090241521
 H          1.6306104134       -4.3485415227       -0.2556846323
 H          2.2694721343       -2.8542947164        0.4123432927
 C          2.4893972984       -3.0520427118       -1.7150708459
 H          1.4800002465       -2.6919345865       -1.9318146870
 H          2.7310799029       -3.8303496188       -2.4411851508
 C          3.4533955131       -1.8696626390       -1.9206260052
 H          4.4616332339       -2.2114836002       -2.1412300405
 H          3.1031990602       -1.2956811107       -2.7833137667
 H          5.3341122533       -3.4167667762       -0.9621500349
 H          5.8100752657       -4.2069153824        0.5250105393
 H          6.0012192960       -1.8637816061        0.8618164637
 H          4.7260420527       -2.4951662562        1.8855009114
 O          3.9961329664       -0.2800485092        1.4603598470
 C          3.2434536934        0.8794674835        1.3893586163
 O          3.2333284597        1.5526694727        2.4411508539
 O          2.0584411749        0.5343870095       -2.0066982261
 C          1.7507383926        2.4310290890        0.1252382503
 C          0.3174663380        2.0934106907       -0.2124039254
 C         -0.4545228479        2.8495011689       -1.0847604797
 C         -1.7679020194        2.4972757266       -1.3443780924
 C         -2.3390485824        1.3891560672       -0.7468129344
 C         -1.5811751183        0.6337614990        0.1385627205
 C         -0.2703417727        0.9968784497        0.4060093026
 H          0.3160102317        0.4081688610        1.1022934183
 N         -2.1441331073       -0.5046890746        0.7414008268
 S         -3.6386623426       -0.3546481754        1.4907141161
 O         -3.8476541668        0.9840904415        1.9920912872
 O         -3.6786964255       -1.4201804477        2.4687684891
 C         -4.8056914172       -0.7126478537        0.1949342385
 C         -5.8343946242        0.1702497840       -0.0687624412
 C         -6.7393823382       -0.1366355268       -1.0731626643
 C         -6.6002712756       -1.3143122696       -1.7913731278
 C         -5.5623363200       -2.1912460524       -1.5126870688
 C         -4.6554119727       -1.8914986579       -0.5088625278
 H         -3.8368253100       -2.5462228786       -0.2600945657
 H         -5.4565121624       -3.1057100932       -2.0738891461
 H         -7.3045905260       -1.5505453422       -2.5732986137
 H         -7.5469153935        0.5435016321       -1.2913163922
 H         -5.8985598534        1.0769918950        0.5112976733
 H         -1.5005239443       -1.0124075687        1.3306679066
 H         -3.3578744860        1.1058751266       -0.9549807292
 H         -2.3536266353        3.0917079810       -2.0287703279
 H         -0.0261244794        3.7135991798       -1.5654267782
 H          1.7675369756        2.8658725092        1.1362159585
 C          2.3791263253        3.4164314901       -0.8391092291
 C          2.2494827572        4.8914484244       -0.6100373452
 C          3.5651907581        4.2108500859       -0.3844513338
 H          4.3673467359        4.3882608816       -1.0848911760
 H          3.8992544581        4.0616262018        0.6324501608
 H          2.1517558311        5.5401259923       -1.4675058867
 H          1.6940064535        5.2171535475        0.2566363763
 H          2.3816954192        3.0520085535       -1.8598619847
