  62
        -98.94365870
 C         -1.8041909576       -0.3553773210       -0.2936322372
 C         -2.9751006615       -0.7119245145       -1.0034423494
 C         -4.2314919775       -0.6426305078       -0.2457565018
 C         -4.1987970008       -0.2748817999        1.0484756746
 C         -5.4077790267       -0.1131055129        1.9229120498
 C         -5.9424530086        1.3250037376        1.8715049501
 C         -6.1167878649        1.8691410014        0.4536194961
 H         -5.1349319464        1.9608087369       -0.0162474436
 H         -6.5271383488        2.8775440140        0.5403657629
 C         -7.0294357750        1.0217540180       -0.4437981777
 H         -7.7092140909        1.6870546974       -0.9803303365
 H         -7.6417694702        0.3597204759        0.1695465659
 C         -6.2909759414        0.1954967061       -1.4984193324
 H         -5.6063627239        0.8399782820       -2.0556141034
 H         -7.0288699421       -0.1884382167       -2.2079850227
 C         -5.4978330884       -1.0059574929       -0.9690666665
 H         -5.1888643288       -1.6052481994       -1.8307160956
 H         -6.1408144690       -1.6214304850       -0.3364357350
 H         -5.2423493145        1.9734365000        2.4031136181
 H         -6.8995309750        1.3560052926        2.3953813133
 H         -5.1231972377       -0.3490626480        2.9496636745
 H         -6.1789858438       -0.8101801041        1.6008484789
 O         -3.0516710730        0.0401802104        1.7020034300
 C         -1.8265797746        0.0144016464        1.0513268429
 O         -0.8578931665        0.3325366072        1.7654412411
 O         -2.9684066582       -1.0772084078       -2.2104778204
 C         -0.4681768272       -0.3933783641       -1.0121711733
 C          0.4718582745       -1.3530798195       -0.3256961267
 C          0.0064638133       -2.6176200455        0.0277239047
 C          0.8330884632       -3.5232790447        0.6621421563
 C          2.1477172065       -3.1946794323        0.9441184564
 C          2.6266789284       -1.9415653265        0.5850145240
 C          1.7896277721       -1.0297212303       -0.0449304619
 H          2.1813630917       -0.0642737184       -0.3167392864
 N          3.9470786819       -1.5716388770        0.8735451251
 S          4.8220453381       -0.6295906665       -0.1922472836
 O          4.4928607963       -0.9291548880       -1.5662414412
 O          6.2031390029       -0.8428226415        0.1865101201
 C          4.3736050119        1.0488905109        0.1961547589
 C          4.3218225593        1.9758591309       -0.8261182022
 C          4.0148638537        3.2931902428       -0.5232963734
 C          3.7668196356        3.6585805714        0.7906673809
 C          3.8256474138        2.7160138982        1.8059111113
 C          4.1358928163        1.3981863682        1.5104872196
 H          4.1833662789        0.6410947189        2.2753321997
 H          3.6276178260        3.0028067847        2.8261978416
 H          3.5242261920        4.6832402521        1.0245640247
 H          3.9684958518        4.0278370240       -1.3116647923
 H          4.5110153610        1.6450722512       -1.8351648685
 H          4.5132264953       -2.2888159509        1.3019614956
 H          2.7957222971       -3.9010697599        1.4404253968
 H          0.4544356562       -4.4968255451        0.9355879760
 H         -1.0187708788       -2.8784306472       -0.1975421944
 H         -0.6854502299       -0.7917286587       -2.0150295963
 C          0.0903427979        1.0069378705       -1.1552484337
 C          0.9919468074        1.3510688935       -2.3016944643
 C         -0.4109311281        1.8762865487       -2.2678861152
 H         -0.5641208610        2.9269521951       -2.0729215370
 H         -1.1357948541        1.4467904621       -2.9440763636
 H          1.8021205717        2.0424555594       -2.1262279032
 H          1.2291536679        0.5671559321       -3.0053284879
 H          0.2792418042        1.4781505639       -0.1968853686
