  62
        -98.94149337
 C         -0.5958700298       -1.8971384170        0.3523873986
 C         -0.9001882476       -0.8740862599       -0.5724216410
 C         -2.0039904505        0.0394009885       -0.2157460983
 C         -2.5939332308       -0.0951740278        0.9865514535
 C         -3.7155804897        0.7172785263        1.5809407450
 C         -5.0890043542        0.3803833667        0.9835060063
 C         -5.1195725021        0.3128068082       -0.5401865553
 H         -4.4314597101       -0.4647275484       -0.8751301728
 H         -6.1260905389        0.0073188162       -0.8376459261
 C         -4.7960312929        1.6238940141       -1.2533829583
 H         -5.0012383765        1.4705781574       -2.3156142161
 H         -5.4713094543        2.4031683813       -0.8943186587
 C         -3.3526972774        2.1206997518       -1.1211331027
 H         -3.1893009051        2.8605288897       -1.9091236558
 H         -3.1898551079        2.6338035994       -0.1769759928
 C         -2.2957364879        1.0384449366       -1.3083920416
 H         -2.5313474465        0.4548927718       -2.2059419612
 H         -1.3336400822        1.5154588914       -1.5207812109
 H         -5.8059990457        1.1253739742        1.3334294695
 H         -5.3985444878       -0.5934544986        1.3710599738
 H         -3.7329079546        0.4843472269        2.6483719221
 H         -3.5021985477        1.7774244530        1.4800823308
 O         -2.2300760856       -1.0706809113        1.8705154836
 C         -1.2455278399       -1.9929967827        1.5805280625
 O         -1.0387535029       -2.8351453021        2.4803970771
 H          1.3750936331       -0.6243806922        1.1872559723
 C          2.0863378350       -0.9993290481        0.4668907890
 C          1.8086968721       -2.1668365103       -0.2310689533
 C          2.7508191416       -2.6374543974       -1.1382089251
 C          3.9307462939       -1.9442884373       -1.3454642423
 C          4.1889565374       -0.7646043930       -0.6715291035
 C          3.2517977575       -0.2866938840        0.2393248794
 N          3.4804486271        0.9094267731        0.9392142335
 S          2.2760964540        1.9716190986        1.3647876243
 O          2.9916373576        3.1088659395        1.9069726238
 O          1.3285473839        1.3518186865        2.2594903181
 C          1.4343410522        2.5283063487       -0.1117019866
 C          1.8007138342        2.1338812212       -1.3812889054
 C          1.1427006240        2.6895100985       -2.4692240044
 C          0.1442251199        3.6293426478       -2.2736732580
 C         -0.2164848583        4.0131105610       -0.9903844800
 C          0.4323149931        3.4566282408        0.0988092306
 H          0.1862945885        3.7232446642        1.1145812313
 H         -0.9988663336        4.7386726639       -0.8363336249
 H         -0.3602238327        4.0600593524       -3.1241861014
 H          1.4133006476        2.3786934626       -3.4652789710
 H          2.5704545421        1.3941795012       -1.5265151447
 H          4.3285009803        1.3994104825        0.6949992773
 H          5.1026055709       -0.2163457258       -0.8445977373
 H          4.6550844737       -2.3215543238       -2.0510625620
 H          2.5596988561       -3.5466839102       -1.6842685406
 C          0.5114147429       -2.8870133885        0.0481707308
 H          0.6436159504       -3.4858494805        0.9622613753
 C          0.0916407055       -3.8069506967       -1.0819714989
 C          0.5341100191       -5.2384495984       -1.1046845154
 C         -0.8918206549       -4.8997954077       -0.7933710555
 H         -1.6502798141       -5.1207760735       -1.5292325111
 H         -1.2323698438       -4.9988616351        0.2275211822
 H          0.7522353167       -5.6961805905       -2.0578981251
 H          1.1579509717       -5.5836488573       -0.2938901935
 H         -0.0041503273       -3.2831778467       -2.0261607823
 O         -0.2818423997       -0.7212777864       -1.6588708059
