  62
        -98.93688118
 C          2.6055318261        1.2416139057        0.1967827088
 C          2.6768913185        0.2029367332       -0.7581245203
 C          3.8914614660       -0.6378627019       -0.7343570645
 C          4.8501996347       -0.3671481457        0.1709487210
 C          6.1403587687       -1.1055727476        0.4090859925
 C          5.9326672423       -2.4286449609        1.1644682327
 C          4.7509805271       -3.2663147161        0.6824325724
 H          4.6427465326       -4.1118632170        1.3668821551
 H          3.8371951528       -2.6733838747        0.7543650928
 C          4.8835501687       -3.8252407063       -0.7321734874
 H          4.0147742127       -4.4637937690       -0.9111227282
 H          5.7748485250       -4.4544649690       -0.7863728568
 C          4.9513918735       -2.7901995362       -1.8568301094
 H          4.8032307875       -3.3246499413       -2.7998396361
 H          5.9370774839       -2.3360838950       -1.9122118386
 C          3.8751199716       -1.7105483131       -1.7966902842
 H          3.8653566511       -1.1758716970       -2.7543465113
 H          2.8911055026       -2.1877234010       -1.7244711185
 H          6.8506722084       -3.0143838909        1.0934092970
 H          5.7640828951       -2.1920375276        2.2179046505
 H          6.6542663770       -1.2724196232       -0.5328038044
 H          6.7679441636       -0.4521494064        1.0191329792
 O          4.7374494991        0.6522299374        1.0711691048
 C          3.6282231021        1.4720378078        1.1151365612
 O          3.6658598545        2.3521108583        1.9996200599
 O          1.7674110911       -0.0251701161       -1.5986105677
 C          1.3876875079        2.1462110854        0.2461236638
 C          0.1460175602        1.3216323483        0.4849760874
 C          0.1214045147        0.4532387248        1.5737076028
 C         -0.9926269743       -0.3189799461        1.8377146645
 C         -2.1091778538       -0.2446317843        1.0225156561
 C         -2.1011580737        0.6259246825       -0.0573784696
 C         -0.9802543672        1.4065960542       -0.3167415591
 H         -0.9911091930        2.0767176579       -1.1621886137
 N         -3.2253034102        0.7018599332       -0.8939953533
 S         -4.7515280750        0.8188187587       -0.2118820953
 O         -5.5695120779        1.4440764414       -1.2280988904
 O         -4.7085751687        1.4783377245        1.0725328257
 C         -5.2673588361       -0.8738562146       -0.0140825101
 C         -5.6930539711       -1.3240674695        1.2201810945
 C         -6.1007822685       -2.6427734553        1.3487175170
 C         -6.0769974864       -3.4829176684        0.2461456758
 C         -5.6495026754       -3.0143989155       -0.9873857011
 C         -5.2415866108       -1.6970856647       -1.1226659516
 H         -4.9054039979       -1.2951450707       -2.0638592504
 H         -5.6320160565       -3.6708671288       -1.8424890105
 H         -6.3934773315       -4.5089413067        0.3485795942
 H         -6.4340929787       -3.0086501870        2.3066094366
 H         -5.6899710014       -0.6364651957        2.0510807738
 H         -3.1191261122        1.3347467365       -1.6731279348
 H         -2.9797486376       -0.8482920511        1.2199578909
 H         -0.9927749861       -0.9892298548        2.6840821479
 H          0.9945875180        0.3928492114        2.2098790566
 H          1.5314582930        2.8002332330        1.1187712868
 C          1.3264744430        3.0054308737       -0.9993094395
 C          0.6390738388        4.3365975319       -0.9637190523
 C          2.1337245460        4.2662529900       -1.0475129176
 H          2.6123953460        4.5375191150       -1.9764900839
 H          2.7103021933        4.5192773298       -0.1695973466
 H          0.0932908259        4.6613327856       -1.8371465957
 H          0.1971461112        4.6465143395       -0.0285408780
 H          1.2636298415        2.4182589044       -1.9084617559
