  62
        -98.94076285
 C         -1.8439820216       -0.7232355000        0.5102237316
 C         -2.3145592801        0.0704270628       -0.5654638741
 C         -3.4633757033        0.9403410306       -0.2620109269
 C         -3.9422439489        0.9961596375        0.9930637198
 C         -5.1437799291        1.7862949350        1.4214298967
 C         -6.4232693045        0.9433862542        1.3232659751
 C         -6.5870429542        0.2212960617       -0.0142971666
 H         -5.7989653178       -0.5286069188       -0.1143842466
 H         -7.5375369110       -0.3153903982        0.0206239337
 C         -6.5656084090        1.1437866449       -1.2411549303
 H         -6.7550145204        2.1730444037       -0.9342135949
 H         -7.3755853379        0.8517025193       -1.9127969001
 C         -5.2710480221        1.0881704441       -2.0546331845
 H         -5.4428895039        1.6037992292       -3.0031869888
 H         -5.0300734456        0.0478534992       -2.2878502317
 C         -4.0432284847        1.7332379561       -1.3991709719
 H         -3.2540287601        1.7935269225       -2.1546944858
 H         -4.2877325052        2.7478379449       -1.0778839716
 H         -6.4053541253        0.1932500096        2.1174753944
 H         -7.2807960016        1.5969087902        1.4933833015
 H         -5.0012705865        2.0957164082        2.4583042415
 H         -5.2311178447        2.6733530947        0.7969815604
 O         -3.4014975828        0.2919944485        2.0204729961
 C         -2.3507329309       -0.5849643016        1.8048165777
 O         -1.9500084422       -1.1642366752        2.8347018381
 O         -1.8175266006        0.0606109323       -1.7200833480
 C         -0.7009344411       -1.7087806527        0.3347052685
 C          0.4302086128       -1.0577643876       -0.4227555756
 C          0.9252480160       -1.5278308709       -1.6311255278
 C          1.9632976325       -0.8680630060       -2.2665103710
 C          2.5342750229        0.2613170033       -1.7108100282
 C          2.0549213892        0.7322149950       -0.4945098461
 C          1.0182995802        0.0682606238        0.1419925174
 H          0.6397338449        0.4403040842        1.0868201234
 N          2.6404261742        1.8699053509        0.0873113174
 S          4.3108872912        1.9663550283        0.1033862851
 O          4.6319714440        2.7858436434        1.2511699262
 O          4.7822987575        2.4550675572       -1.1683893151
 C          4.8728772207        0.2909746815        0.3518922504
 C          4.4928427316       -0.3557284142        1.5113403441
 C          4.8868824106       -1.6692892957        1.7064331765
 C          5.6501330602       -2.3110306662        0.7428306141
 C          6.0284083438       -1.6464171788       -0.4131111370
 C          5.6356687166       -0.3327335183       -0.6141002105
 H          5.9053634206        0.2203784415       -1.4989152335
 H          6.6233584543       -2.1473760099       -1.1595585118
 H          5.9515605313       -3.3351486221        0.8962275338
 H          4.5937999576       -2.1871810215        2.6056650012
 H          3.9034227786        0.1726711797        2.2437801491
 H          2.2481514278        2.1234029955        0.9816737921
 H          3.3298884660        0.7960052913       -2.2038077053
 H          2.3287161638       -1.2352592884       -3.2132725873
 H          0.4791686778       -2.3933862369       -2.0918622849
 H         -0.3434593117       -1.9092786191        1.3582703206
 C         -1.1233260558       -3.0513005552       -0.2436747894
 C         -2.5068579923       -3.5835932969       -0.0208017258
 C         -2.0754516830       -3.1698226626       -1.3940758290
 H         -1.8979514059       -3.9426715288       -2.1277478114
 H         -2.4740677598       -2.2584336231       -1.8099022683
 H         -2.6247219017       -4.6360577124        0.1892443205
 H         -3.2060639248       -2.9530955341        0.5098349379
 H         -0.3189918201       -3.7790104283       -0.2008677337
