  62
        -98.94068786
 C          1.3859378432        1.4551048551        0.4165777165
 C          1.8850120561        0.3628402040        1.1726350402
 C          2.9915932186       -0.3897978962        0.5721332727
 C          3.4507249773       -0.0424160443       -0.6434170601
 C          4.6005155034       -0.6817549819       -1.3738204156
 C          4.2199840138       -1.9441320880       -2.1589615571
 C          3.9276396014       -3.1767099198       -1.3028590408
 H          3.8907424534       -4.0335461239       -1.9783992199
 H          4.7555651201       -3.3422824421       -0.6127509820
 C          2.6079211492       -3.1060072516       -0.5217076609
 H          2.0709048238       -4.0496686124       -0.6334335787
 H          1.9719840644       -2.3258028159       -0.9465708910
 C          2.7686326993       -2.8503394145        0.9767928533
 H          3.2811822942       -3.6957016396        1.4409998853
 H          1.7721721256       -2.7705609991        1.4168569348
 C          3.5355206500       -1.5677243414        1.3225595524
 H          3.4093862589       -1.3697920206        2.3898683520
 H          4.5979289199       -1.6934255113        1.1138158373
 H          5.0551631383       -2.1780341045       -2.8233187944
 H          3.3520815420       -1.7183980685       -2.7827899681
 H          5.3968110422       -0.9173584775       -0.6669871417
 H          4.9721327682        0.0640087860       -2.0800090103
 O          2.9119528293        0.9772998229       -1.3604628016
 C          1.8552977544        1.7362005839       -0.8681370777
 O          1.4538461997        2.6029734132       -1.6651163381
 O          1.4308020726        0.0364494437        2.3013691368
 C          0.2514349365        2.2623652023        1.0227230212
 C         -0.8920741693        2.3608873431        0.0467435908
 C         -1.2268053035        3.5317076127       -0.6206037328
 C         -2.2691551481        3.5426138541       -1.5297985108
 C         -3.0104030089        2.4003536432       -1.7711732101
 C         -2.6877163322        1.2248005807       -1.1035837500
 C         -1.6284373108        1.2110190458       -0.2109628992
 H         -1.3721922276        0.2917292871        0.2975754843
 N         -3.4186539737        0.0434223141       -1.3170760367
 S         -3.9099331937       -0.8396899944        0.0209399589
 O         -5.0878710098       -1.5535538531       -0.4262158512
 O         -4.0821184332        0.0083955226        1.1770311662
 C         -2.6135825644       -2.0247668620        0.3040546006
 C         -2.0524471249       -2.1358657263        1.5602916480
 C         -1.0984284398       -3.1155692343        1.7846676975
 C         -0.7252614130       -3.9629939890        0.7531566203
 C         -1.2900342661       -3.8311717545       -0.5066199084
 C         -2.2466030248       -2.8558322636       -0.7360337912
 H         -2.7175431520       -2.7301812266       -1.6968275362
 H         -0.9909134460       -4.4881929446       -1.3074080811
 H          0.0100114346       -4.7310942989        0.9346405527
 H         -0.6512191763       -3.2093430793        2.7616179173
 H         -2.3680812111       -1.4549881754        2.3351471932
 H         -4.1694632867        0.1340164503       -1.9868174441
 H         -3.8303225268        2.4135392436       -2.4737184126
 H         -2.5124782856        4.4550331918       -2.0530632645
 H         -0.6523701718        4.4266479378       -0.4470746882
 H         -0.0898437821        1.6513272131        1.8752272303
 C          0.6661258444        3.6072144597        1.6000648254
 C          2.0082057210        3.7799600873        2.2450181914
 C          1.6942764048        4.4932816455        0.9659112381
 H          1.5362362847        5.5614290233        1.0028117564
 H          2.1616643835        4.1541899163        0.0553783973
 H          2.0726842822        4.3555436933        3.1561162785
 H          2.6887405029        2.9416094826        2.2072894322
 H         -0.1683672868        4.1056571645        2.0849347880
