  62
        -98.93736529
 C          2.2852900973       -0.6833749024       -0.1424931318
 C          3.5431751280       -1.0243770430       -0.7032407951
 C          4.7264682345       -0.5880603051        0.0453832242
 C          4.5722397990        0.0992349004        1.1913081167
 C          5.6781569528        0.5909879633        2.0852893109
 C          6.2811640929        1.9339695389        1.6509879125
 C          7.1616213356        1.8781331326        0.4019416807
 H          7.6889322430        2.8320594091        0.3391089193
 H          7.9135976740        1.0978889959        0.5233937195
 C          6.3906245253        1.6537083214       -0.9063943759
 H          5.3319209412        1.8714388503       -0.7469626196
 H          6.7497359060        2.3523160146       -1.6654877037
 C          6.5240813369        0.2460810274       -1.4876288940
 H          7.5622926173        0.0646125789       -1.7741839745
 H          5.9104711981        0.1879638459       -2.3902642934
 C          6.0767481139       -0.8742162683       -0.5394376636
 H          6.0008432432       -1.8002128191       -1.1146992670
 H          6.8122378675       -1.0131941425        0.2526468101
 H          6.8883444260        2.3016037168        2.4813720668
 H          5.4680739499        2.6462358077        1.4927957537
 H          6.4650136275       -0.1617141404        2.1420264698
 H          5.2418904158        0.7147775152        3.0787837225
 O          3.3499277549        0.4219102582        1.6890687811
 C          2.1779278656        0.0668613891        1.0296017774
 O          1.1460087864        0.4776656689        1.5914828299
 O          3.6699792512       -1.6625406316       -1.7820638560
 C          1.0424255765       -1.1121139003       -0.9005850223
 C          0.0726389170        0.0352642839       -1.0242723085
 C          0.4599479127        1.1637966448       -1.7434262196
 C         -0.3944969214        2.2390291440       -1.8865327292
 C         -1.6621267205        2.2050307335       -1.3320839681
 C         -2.0552354000        1.0874968351       -0.6065720728
 C         -1.1894114851        0.0131976195       -0.4546351110
 H         -1.5152320330       -0.8301649689        0.1309870750
 N         -3.3236344337        1.0305819970       -0.0079965654
 S         -4.1188832179       -0.4564805922        0.0397048177
 O         -3.7055971785       -1.1812698704        1.2147049960
 O         -3.9565364857       -1.1432741872       -1.2226188416
 C         -5.8074149356        0.0862745314        0.2326753440
 C         -6.2631346327        0.4056847554        1.4978997497
 C         -7.5642512787        0.8590790922        1.6464685291
 C         -8.3833357214        0.9855997673        0.5342326542
 C         -7.9128509194        0.6591697259       -0.7288090005
 C         -6.6121221526        0.2064671172       -0.8847427314
 H         -6.2061661870       -0.0674003393       -1.8452847784
 H         -8.5531452439        0.7550782233       -1.5908375240
 H         -9.3957157143        1.3379441057        0.6532090075
 H         -7.9342536697        1.1107503435        2.6272815175
 H         -5.5931738878        0.2826556636        2.3329822505
 H         -3.9356255293        1.7789755850       -0.3022738928
 H         -2.3346681329        3.0414230480       -1.4485485536
 H         -0.0770479575        3.1079747455       -2.4434253951
 H          1.4479820173        1.1865021953       -2.1838742695
 H          1.4098084113       -1.3515734308       -1.9135027245
 C          0.3934224282       -2.3809491208       -0.3690226346
 C          1.2101615093       -3.4602085479        0.2741890898
 C          0.2475748163       -2.6587229146        1.0957307476
 H         -0.6641463033       -3.1290703263        1.4358602053
 H          0.6383707241       -1.9270517408        1.7855050200
 H          0.9681898018       -4.4886287334        0.0521678755
 H          2.2667208552       -3.2760106532        0.4042858165
 H         -0.4246026446       -2.7103893049       -1.0045296892
