  62
        -98.94369406
 C         -2.6375152580       -0.0362880008        0.4459773616
 C         -2.2266593546        0.4818535460       -0.8063002234
 C         -1.9532826014        1.9251267467       -0.8444834996
 C         -2.1009605490        2.6545684556        0.2761011380
 C         -1.8814608669        4.1364664475        0.3730887623
 C         -0.4494442693        4.4849339315        0.7971120209
 C          0.6350584191        3.7734529442       -0.0121912459
 H          1.5978972419        4.1582332107        0.3325590210
 H          0.6222891151        2.7050698404        0.2143967400
 C          0.5312874449        3.9628569173       -1.5314885096
 H          1.5322847206        4.1508139214       -1.9257042112
 H         -0.0787388628        4.8386638303       -1.7587525378
 C         -0.0181002905        2.7492274579       -2.2852306601
 H          0.5032209303        1.8461264314       -1.9524561994
 H          0.2029697355        2.8797140741       -3.3485764622
 C         -1.5292124792        2.5130140065       -2.1599988429
 H         -2.0652893276        3.4438544945       -2.3604399497
 H         -1.8155279389        1.7797479660       -2.9199317170
 H         -0.3228667648        4.2140968656        1.8478060695
 H         -0.3215106325        5.5656755736        0.7062077176
 H         -2.5748718532        4.5325917204        1.1175877314
 H         -2.1037943498        4.5884064539       -0.5918548967
 O         -2.4676684454        2.1152281332        1.4678020086
 C         -2.7180369779        0.7583438495        1.5875989888
 O         -3.0040954894        0.3865071594        2.7454827407
 O         -2.1170441591       -0.2221112643       -1.8446407384
 C         -2.9338060525       -1.5204847991        0.5870306480
 C         -1.7162080630       -2.2995614821        0.1542917647
 C         -1.7425639854       -3.3529907123       -0.7498416665
 C         -0.5660691373       -3.9560629178       -1.1624249434
 C          0.6588829885       -3.5221711415       -0.6878662245
 C          0.6892424365       -2.4961804227        0.2434756971
 C         -0.4871183398       -1.9051041461        0.6675547669
 H         -0.4475067857       -1.0845747803        1.3752051338
 N          1.9505805911       -1.9965928807        0.6956000535
 S          2.3197012562       -0.5792210909       -0.1618753812
 O          1.5765402299        0.5377373357        0.3827049496
 O          2.1548809563       -0.8508481672       -1.5664141551
 C          4.0529672210       -0.3947953654        0.2148694870
 C          4.4770708236        0.6157475699        1.0546554779
 C          5.8266897305        0.7137648797        1.3569579341
 C          6.7220365288       -0.1987604799        0.8208929852
 C          6.2801102384       -1.2093154441       -0.0205789901
 C          4.9331980810       -1.3110040672       -0.3279441439
 H          4.5427964908       -2.0734875354       -0.9810180684
 H          6.9797305627       -1.9165999080       -0.4357979543
 H          7.7710060845       -0.1211283041        1.0594427916
 H          6.1723317965        1.4995599623        2.0092203807
 H          3.7447032688        1.3040063684        1.4457274828
 H          1.9020593881       -1.7315261033        1.6724116808
 H          1.5838144417       -3.9544711847       -1.0321950885
 H         -0.6045138781       -4.7611230892       -1.8803984213
 H         -2.6850822989       -3.6862645862       -1.1529869007
 H         -3.1006543866       -1.6994553831        1.6594533391
 C         -4.1913709827       -1.8840300239       -0.1733711623
 C         -5.0302211832       -3.0446141069        0.2683220420
 C         -5.5216031111       -1.6439077411        0.4725291257
 H         -6.3344592930       -1.2852779836       -0.1406598324
 H         -5.5184954618       -1.2380004743        1.4738434056
 H         -5.5111970249       -3.6492641837       -0.4854668794
 H         -4.7018357947       -3.5969644229        1.1356497543
 H         -4.1061738327       -1.6836101186       -1.2352570988
