  62
        -98.94724751
 C          0.9779178864        1.5244202140       -0.8811554043
 C          2.2956435160        1.4703228645       -0.3571861452
 C          3.0575173846        0.2480485473       -0.6259947667
 C          2.4956119827       -0.7386346392       -1.3462255571
 C          3.1211979314       -2.0670570123       -1.6729528351
 C          2.9668414996       -3.0995470974       -0.5472947032
 C          3.8747214282       -2.8767509571        0.6630029059
 H          3.8499617552       -3.7944531383        1.2542952441
 H          4.9025238433       -2.7310401537        0.3274621821
 C          3.4493950415       -1.7060548001        1.5606516112
 H          3.4954469497       -2.0178541803        2.6073437683
 H          2.4058229139       -1.4505502262        1.3571407103
 C          4.3151924157       -0.4525440233        1.4266908339
 H          5.3256596126       -0.6670226669        1.7835717356
 H          3.8883216555        0.3239806286        2.0667426216
 C          4.4109988861        0.1085184451        0.0023593072
 H          4.8559489139        1.1053815288        0.0581133343
 H          5.0505961071       -0.5269303360       -0.6100727074
 H          3.1885934786       -4.0833152296       -0.9684481932
 H          1.9258775011       -3.1027878070       -0.2121150871
 H          4.1780292354       -1.9341857741       -1.9062547563
 H          2.6123007967       -2.4438002592       -2.5629009847
 O          1.2559103311       -0.6285621795       -1.8836259745
 C          0.4492004880        0.4737355536       -1.6314471190
 O         -0.6823013857        0.3790666967       -2.1473231057
 O          2.8102059594        2.4078820516        0.3116329297
 C          0.1384878089        2.7186294343       -0.4566509999
 C         -0.5541108617        2.3698370869        0.8415014284
 C         -0.4834755988        3.1975369067        1.9551568907
 C         -1.0529350141        2.8083542744        3.1554212628
 C         -1.6640709622        1.5732185335        3.2793428031
 C         -1.7411371374        0.7408257805        2.1686747011
 C         -1.2292224535        1.1634111671        0.9529543353
 H         -1.3145511923        0.5158212987        0.0959554196
 N         -2.3147807083       -0.5376092221        2.2380850906
 S         -1.5970514052       -1.7793949125        1.3628489235
 O         -1.9799052538       -2.9836808744        2.0755278752
 O         -0.1747263967       -1.5778943397        1.2090010198
 C         -2.4255937469       -1.7864663742       -0.2106651922
 C         -1.7639405540       -2.3151253889       -1.2994689910
 C         -2.4215982072       -2.3822472586       -2.5167500410
 C         -3.7235933076       -1.9216200501       -2.6226122373
 C         -4.3754082654       -1.3945157056       -1.5184955512
 C         -3.7247138102       -1.3284232388       -0.2974941431
 H         -4.1985095740       -0.9176877634        0.5786281837
 H         -5.3866073515       -1.0304079009       -1.6061826773
 H         -4.2302078733       -1.9677479458       -3.5739090391
 H         -1.9090139177       -2.7811319331       -3.3774123306
 H         -0.7427261358       -2.6431499214       -1.1829913353
 H         -2.5852919591       -0.8411860124        3.1624138171
 H         -2.0672011997        1.2502078631        4.2270179926
 H         -0.9924273412        3.4600915533        4.0138299380
 H          0.0429565022        4.1377312017        1.8848778188
 H          0.8539229840        3.5258568583       -0.2469640502
 C         -0.8539032096        3.2096877786       -1.4895674821
 C         -1.3268758621        4.6302231918       -1.4254026114
 C         -0.4081231496        4.1948839256       -2.5264183122
 H         -0.8027892666        4.1003577879       -3.5265320713
 H          0.6204309434        4.5237587336       -2.4930056329
 H         -2.3571378065        4.8393595338       -1.6681706102
 H         -0.9211482870        5.2602083194       -0.6484999520
 H         -1.5643853914        2.4533624534       -1.7953930805
