  62
        -98.94776794
 C         -0.7800365657       -1.2705284176        0.0220130876
 C         -1.4876037677       -0.6105651421        1.0539629274
 C         -2.4070731275        0.4471632887        0.6199804957
 C         -2.4797655699        0.7745017865       -0.6829722169
 C         -3.3830349327        1.8161430429       -1.2850396126
 C         -4.8039616059        1.3097523217       -1.5720204579
 C         -5.6849530808        1.1054613755       -0.3386530590
 H         -5.6732437459        2.0100136823        0.2701363205
 H         -6.7075996406        0.9669973629       -0.6952107671
 C         -5.2981698966       -0.1034640187        0.5249468597
 H         -4.6586176876       -0.7751442208       -0.0524014122
 H         -6.1970022472       -0.6660218115        0.7875521711
 C         -4.5890458568        0.2504701033        1.8324033056
 H         -5.2686599171        0.8103602128        2.4788703986
 H         -4.3290169886       -0.6798545648        2.3439702327
 C         -3.3028081556        1.0671915032        1.6498075591
 H         -3.5499966417        2.0926162334        1.3762644075
 H         -2.7634259257        1.0748798683        2.6004295963
 H         -5.2880254673        2.0460100045       -2.2176782434
 H         -4.7359108182        0.3729691776       -2.1296820504
 H         -2.9270291786        2.1113873232       -2.2317580916
 H         -3.4346604627        2.6858748283       -0.6306494686
 O         -1.7109510790        0.1784732595       -1.6320253839
 C         -0.8744340474       -0.8810836916       -1.3140621598
 O         -0.2785320874       -1.3755685849       -2.2893309559
 O         -1.3668575180       -0.8992883353        2.2758333008
 C          0.1050261215       -2.4511487500        0.3720706837
 C          1.5109517355       -2.2539484908       -0.1364832080
 C          2.2561355110       -3.2709576314       -0.7195399872
 C          3.5489864421       -3.0311686646       -1.1512851529
 C          4.1264201686       -1.7843843833       -1.0033851170
 C          3.3907820345       -0.7601384713       -0.4159284521
 C          2.0965197685       -1.0032230701        0.0129022439
 H          1.5294827446       -0.2087210621        0.4755666304
 N          3.9361017226        0.5216762292       -0.2855549114
 S          3.3958088381        1.6121981295        0.8484315596
 O          4.4175422641        2.6382228508        0.8621485624
 O          3.1227800878        0.9838021220        2.1200736860
 C          1.9116850046        2.3016588340        0.1506782822
 C          1.9331485653        2.7075485334       -1.1686260972
 C          0.8061308478        3.3113505555       -1.7012062806
 C         -0.3128334797        3.5083207519       -0.9071329275
 C         -0.3207946152        3.0900164649        0.4139625266
 C          0.8006723414        2.4781600295        0.9500253744
 H          0.8286446540        2.1271440109        1.9702295413
 H         -1.1913321428        3.2357132050        1.0327117704
 H         -1.1837162255        3.9917557676       -1.3200177637
 H          0.8041502259        3.6293119093       -2.7314060269
 H          2.8237929072        2.5469100516       -1.7530452321
 H          4.9152065873        0.6162403596       -0.5071350336
 H          5.1338763122       -1.5980900017       -1.3423765398
 H          4.1159963482       -3.8282907548       -1.6076928841
 H          1.8245708012       -4.2508706610       -0.8406377822
 H          0.1435821106       -2.4744210256        1.4723518140
 C         -0.5374161822       -3.7337689040       -0.1186718869
 C         -0.3490839684       -5.0169624534        0.6324549539
 C         -1.6736203094       -4.3173423738        0.6646406214
 H         -2.5028718247       -4.7523277194        0.1270867901
 H         -1.9616192223       -3.8060806997        1.5717749178
 H         -0.2710997869       -5.9366212580        0.0722922770
 H          0.2585817330       -4.9896392588        1.5244137676
 H         -0.6019245903       -3.7759517494       -1.2005821066
