  62
        -98.93876652
 C         -1.7074393221       -0.8204059541        0.1548176884
 C         -3.0121809376       -1.0702109653        0.6414687678
 C         -3.9589947789        0.0488564278        0.5470375784
 C         -3.5483521992        1.2267000435        0.0431140503
 C         -4.3639487526        2.4870043767       -0.0755806579
 C         -5.5611297368        2.4341244299       -1.0443463379
 C         -6.8966802992        2.0766665270       -0.3804601706
 H         -6.8459755546        2.3423247816        0.6761773472
 H         -7.6832618171        2.6928549742       -0.8207582269
 C         -7.3427356884        0.6179362487       -0.5198167543
 H         -8.1526679560        0.4465016863        0.1925568046
 H         -7.7490290756        0.4633111463       -1.5220480932
 C         -6.2581296305       -0.4366623455       -0.2987729495
 H         -5.6033177106       -0.4791519723       -1.1725687248
 H         -6.7413836108       -1.4133127190       -0.2292284487
 C         -5.3823537089       -0.2075538073        0.9484605514
 H         -5.7692645905        0.6178320344        1.5441270815
 H         -5.3748931346       -1.1065064276        1.5681544438
 H         -5.6557665331        3.4282949125       -1.4840754973
 H         -5.3413452921        1.7419527975       -1.8568343851
 H         -4.7155415660        2.7721981117        0.9185144042
 H         -3.6651577326        3.2539624723       -0.4154471666
 O         -2.2765014183        1.4300337319       -0.3978080799
 C         -1.3324973864        0.4149505965       -0.3708426489
 O         -0.2197039098        0.7376935208       -0.8266565060
 H          1.9968567533       -1.9370874363       -0.5395858529
 C          1.8198541262       -1.5696651348        0.4567819793
 C          0.5356677639       -1.4975485575        0.9719144904
 C          0.3632303311       -1.0110645184        2.2663989971
 C          1.4453401142       -0.5980436555        3.0179371434
 C          2.7250136762       -0.6530385936        2.4918384352
 C          2.9091692175       -1.1408125432        1.2049824575
 N          4.1995214197       -1.2327997386        0.6474061988
 S          4.5318098115       -0.4349754566       -0.7878303471
 O          3.6796487811       -0.9315761097       -1.8355812936
 O          5.9545985387       -0.6130158827       -0.9834398178
 C          4.1943617760        1.2806602078       -0.4338105362
 C          5.2553483578        2.1022180719       -0.1021962439
 C          5.0043818965        3.4204022026        0.2403425804
 C          3.6996534632        3.8909469219        0.2561165343
 C          2.6474396911        3.0518457128       -0.0747405365
 C          2.8897973053        1.7315840882       -0.4238389223
 H          2.0770020580        1.0722750233       -0.6852258979
 H          1.6283900996        3.4052542195       -0.0656362865
 H          3.5007897043        4.9162670806        0.5260831014
 H          5.8224824714        4.0745717738        0.4956186044
 H          6.2526314496        1.6935537639       -0.1315848064
 H          4.9393363156       -1.0397483654        1.3087378036
 H          3.5729013233       -0.3255075078        3.0742976869
 H          1.2933399223       -0.2238752493        4.0190409681
 H         -0.6376041857       -0.9613405261        2.6736307467
 C         -0.6799471291       -1.9366188086        0.1950068757
 H         -1.1618718244       -2.7574525137        0.7469991029
 C         -0.3664596938       -2.4155079080       -1.2067400041
 C          0.0920452743       -3.8236877353       -1.4352646920
 C         -1.2829204327       -3.4048230086       -1.8591213364
 H         -1.4895632775       -3.2992451186       -2.9136878623
 H         -2.1260083557       -3.7548659648       -1.2813461793
 H          0.8345106761       -4.0039153320       -2.1983084786
 H          0.1830828576       -4.4655458629       -0.5720169194
 H          0.0539853036       -1.6367824242       -1.8345025761
 O         -3.3652302214       -2.1714957981        1.1423152568
