  62
        -98.93969362
 C          0.9056563207        1.2149219098       -0.2669097605
 C          1.9637924309        1.2437219896        0.6763955393
 C          2.9233429503        0.1269010291        0.6490012196
 C          2.7653710197       -0.8496335812       -0.2632034101
 C          3.5817804690       -2.0929571017       -0.5498516598
 C          4.9502323590       -2.2944651421        0.0957033801
 C          6.0392256694       -1.3477593228       -0.4092730604
 H          6.9353869994       -1.5009543431        0.1959137795
 H          6.2841036891       -1.6196764933       -1.4392665604
 C          5.6813755001        0.1363022173       -0.4001755909
 H          6.5324011604        0.6882185768       -0.8088757512
 H          4.8341937401        0.3143362075       -1.0657091808
 C          5.3640859107        0.7225877080        0.9737167190
 H          5.2739278712        1.8060183380        0.8570584586
 H          6.1932029607        0.5285744378        1.6570882989
 C          4.0641962205        0.2172501688        1.6216739593
 H          4.2179625901       -0.7343152211        2.1240232696
 H          3.7622288210        0.9450424092        2.3802782291
 H          4.8681727392       -2.2414873017        1.1771231100
 H          5.2635518385       -3.3131340724       -0.1486186296
 H          2.9431148486       -2.9388515513       -0.2779896194
 H          3.6925450688       -2.1303453121       -1.6384324998
 O          1.7116300295       -0.8536009709       -1.1291153599
 C          0.7609590200        0.1543891195       -1.1592353001
 O         -0.1224674302       -0.0271391103       -2.0192869999
 H         -2.0227580697        0.5932837010       -0.7947025698
 C         -2.1920093193        1.1252276315        0.1285105300
 C         -1.2846452987        2.0866441011        0.5535046796
 C         -1.5243188382        2.7544831217        1.7493305394
 C         -2.6501492282        2.4718042425        2.5014122797
 C         -3.5496430588        1.5100883228        2.0804825801
 C         -3.3150645593        0.8307831523        0.8887807903
 N         -4.2106032399       -0.1535493874        0.4548382108
 S         -3.7486178607       -1.4039735780       -0.5425204688
 O         -3.6568896406       -0.9503578485       -1.9064201890
 O         -4.7511406511       -2.4235213074       -0.2986624683
 C         -2.1759012709       -2.0127916686        0.0416880911
 C         -1.8680851506       -1.9633382783        1.3865969811
 C         -0.6729421808       -2.5132080687        1.8206264310
 C          0.1803910587       -3.1185268895        0.9121173211
 C         -0.1469316915       -3.1688177198       -0.4333080688
 C         -1.3337053313       -2.6064849193       -0.8751622488
 H         -1.6114876415       -2.6011014895       -1.9167433888
 H          0.5176037481       -3.6323033203       -1.1450378188
 H          1.1054723186       -3.5523506698        1.2591176011
 H         -0.4115959306       -2.4689467385        2.8658017210
 H         -2.5465157403       -1.4965654177        2.0818612710
 H         -4.9198688399       -0.4286013968        1.1174765910
 H         -4.4275037288        1.2820110634        2.6653277704
 H         -2.8261296078        2.9996500429        3.4261458295
 H         -0.8116775978        3.4896558714        2.0926189390
 C         -0.0488297587        2.3972860402       -0.2553994407
 H          0.4959389718        3.1957458302        0.2672726289
 C         -0.4124742187        2.8981696100       -1.6386390109
 C         -0.8353428580        4.3259599101       -1.8047188913
 C          0.4952209217        3.8725428093       -2.3248177113
 H          0.6330083315        3.7834959788       -3.3919992713
 H          1.3832956219        4.1862311690       -1.7953576116
 H         -1.6160200780        4.5512909603       -2.5149775212
 H         -0.8475669475        4.9506022204       -0.9243017715
 H         -0.8987829992        2.1543910600       -2.2566023205
 O          2.1091913515        2.1781728498        1.5091594690
