  62
        -98.93872641
 C         -2.7372229408       -0.7259166897       -0.1444790418
 C         -2.3514711603        0.2093437502       -1.1385538417
 C         -2.6495956806        1.6215544203       -0.8352954620
 C         -3.2795298812        1.9422218304        0.3075496276
 C         -3.5973545714        3.3384302704        0.7572654673
 C         -2.4709821119        3.9139736305        1.6261697178
 C         -1.0769984016        3.7633065505        1.0161423885
 H         -0.3716686820        4.2474730606        1.6952875888
 H         -0.8057846515        2.7052289205        0.9769256788
 C         -0.9291014909        4.3657082904       -0.3876412914
 H         -1.7381782708        5.0728290103       -0.5773523219
 H          0.0089258691        4.9228390704       -0.4315621510
 C         -0.8813740803        3.3307624303       -1.5137051013
 H         -0.5385819998        3.8319397902       -2.4236357212
 H         -0.1457067504        2.5597253103       -1.2682966909
 C         -2.2139840501        2.6457330002       -1.8449597719
 H         -2.0822289696        2.1015482001       -2.7851141518
 H         -2.9910543900        3.4000895101       -1.9898735324
 H         -2.6787395220        4.9712290805        1.8020444976
 H         -2.4803453424        3.3993948706        2.5897536879
 H         -4.5171604417        3.3074201804        1.3440337368
 H         -3.7554982810        3.9680192903       -0.1161384128
 O         -3.6719421216        1.0135905704        1.2180550475
 C         -3.3810424314       -0.3255700596        1.0293962678
 O         -3.7597473319       -1.0652806095        1.9611233577
 O         -1.8023421798       -0.0883306898       -2.2299642814
 C         -2.4251834207       -2.2129932097       -0.2062786615
 C         -1.1671229211       -2.5058704295        0.5736831291
 C         -1.0762628115       -3.6217664194        1.3975366393
 C          0.0903686782       -3.8874097093        2.0925072899
 C          1.1844610982       -3.0495536293        1.9782267304
 C          1.0970504286       -1.9186981294        1.1724200002
 C         -0.0737325611       -1.6578968895        0.4762573296
 H         -0.1283753808       -0.7831040196       -0.1536984205
 N          2.1710550886       -1.0200758493        1.0818162707
 S          2.3581154093       -0.1109272995       -0.3296110793
 O          1.4627466592        1.0149859905       -0.2752057199
 O          2.2675198199       -0.9744160096       -1.4847561793
 C          4.0381215491        0.4473746606       -0.1174092585
 C          4.2747831987        1.5870307707        0.6273709515
 C          5.5830413686        2.0026466908        0.8186426921
 C          6.6269203289        1.2755285008        0.2660625627
 C          6.3739569593        0.1352584807       -0.4816994073
 C          5.0679583194       -0.2861090294       -0.6759528479
 H          4.8223089598       -1.1590882495       -1.2591815780
 H          7.1870498396       -0.4253869893       -0.9138475768
 H          7.6439321888        1.6017101108        0.4158632732
 H          5.7830506083        2.8908386908        1.3959378721
 H          3.4305990785        2.1236367007        1.0283982310
 H          3.0459985284       -1.4089410193        1.4052453012
 H          2.0952989079       -3.2578965492        2.5183733309
 H          0.1500082179       -4.7580517693        2.7277591800
 H         -1.9319211515       -4.2727391995        1.5011245589
 H         -3.2570207610       -2.7142450496        0.3163654781
 C         -2.3728097200       -2.7802765198       -1.6168558715
 C         -1.0949094396       -3.0366314498       -2.3512945908
 C         -1.9116432598       -4.1886224898       -1.8528138011
 H         -2.4462705394       -4.7902048899       -2.5722064113
 H         -1.5313250802       -4.7406061797       -1.0068743008
 H         -1.0779408491       -2.8229760299       -3.4092075908
 H         -0.1635861099       -2.8004409197       -1.8581798103
 H         -3.2072601797       -2.4341785199       -2.2182044319
