  62
        -98.94151360
 C          2.3780391904        1.2284386204        0.1626393995
 C          3.3192782103        0.5548464802        0.9818448795
 C          4.0980752402       -0.5119526298        0.3395143294
 C          3.8564834103       -0.8148343696       -0.9487538506
 C          4.5328272302       -1.9152666296       -1.7129518607
 C          3.7485653900       -3.2304819796       -1.6047992409
 C          3.3664103499       -3.6063376397       -0.1729974710
 H          2.6510206299       -2.8731943296        0.2082030290
 H          2.8455181498       -4.5654873096       -0.2167700112
 C          4.5532475798       -3.7103760999        0.7953923391
 H          4.4378702496       -4.6168391600        1.3932277989
 H          5.4818875598       -3.8093732100        0.2324133491
 C          4.6769082598       -2.5424051601        1.7756040492
 H          5.4029382297       -2.8195600003        2.5443674692
 H          3.7181654798       -2.3806200200        2.2750294692
 C          5.1371982901       -1.2096189301        1.1718139094
 H          5.3628187101       -0.5315678202        2.0000902295
 H          6.0510445101       -1.3639776601        0.5946055695
 H          2.8300421501       -3.1361234994       -2.1894054510
 H          4.3500589000       -4.0285494596       -2.0437545810
 H          4.5873587503       -1.6214542595       -2.7625186407
 H          5.5424598402       -2.0493904198       -1.3293879107
 O          2.9196073704       -0.1760540194       -1.6932327907
 C          2.1484023205        0.8521955006       -1.1621857506
 O          1.3221756806        1.3242710408       -1.9637838906
 O          3.4956534702        0.8299697200        2.1991437895
 C          1.5517037905        2.3309345904        0.8020017295
 C          0.0915117905        2.1278690406        0.4835952594
 C         -0.6944569793        3.0591281608       -0.1806276206
 C         -2.0223056493        2.7828092110       -0.4573085607
 C         -2.5947055495        1.5831661010       -0.0774021209
 C         -1.8161965097        0.6417681909        0.5834052190
 C         -0.4894711897        0.9243531707        0.8655693792
 H          0.1192216002        0.1865123505        1.3757371691
 N         -2.3884444799       -0.5802085591        0.9818780788
 S         -3.2364895899       -1.4707421989       -0.1637064713
 O         -3.1618709701       -2.8396462989        0.3011027585
 O         -2.7582135297       -1.2199740288       -1.5032415113
 C         -4.9111325198       -0.8914174487        0.0119693486
 C         -5.5797363897       -0.3738459585       -1.0799660014
 C         -6.8841659796        0.0675476217       -0.9191783415
 C         -7.4933027097       -0.0171148584        0.3234414685
 C         -6.8088512999       -0.5425858886        1.4094390585
 C         -5.5051341599       -0.9860468088        1.2553719285
 H         -4.9394605000       -1.4043113689        2.0710564785
 H         -7.2860337900       -0.6074099787        2.3740094184
 H         -8.5077300997        0.3282259517        0.4459311384
 H         -7.4176660995        0.4756660718       -1.7625711115
 H         -5.0630363696       -0.3230953684       -2.0254554414
 H         -1.7479351100       -1.1794165693        1.4827272788
 H         -3.6260370495        1.3626712412       -0.2992267610
 H         -2.6197646692        3.5124798012       -0.9822777807
 H         -0.2609234792        3.9896871508       -0.5076099404
 H          1.6847156004        2.1736602103        1.8859696595
 C          2.0477093307        3.7389614204        0.5108509397
 C          3.4932143008        4.0010654503        0.2140040299
 C          2.4635931309        4.1809755705       -0.8589306602
 H          2.2186318110        5.1867539506       -1.1678256901
 H          2.4134096709        3.4557891006       -1.6556842503
 H          3.9536655008        4.8794863502        0.6406339600
 H          4.1541259307        3.1486527902        0.1506092399
 H          1.5451025608        4.4776912904        1.1276379198
