  62
        -98.94109115
 C         -1.1062357740       -1.2420687763       -0.2141491818
 C         -2.0095426044       -0.9217458081        0.8316255489
 C         -2.8979392300        0.2345553170        0.6260451896
 C         -2.8167518875        0.9271061106       -0.5249851152
 C         -3.5761953232        2.1416074039       -1.0180684583
 C         -4.8216724529        2.6338551836       -0.2856377066
 C         -6.0314606079        1.7052516262       -0.3895830215
 H         -6.4026733175        1.7336282897       -1.4172556765
 H         -6.8197042270        2.0949975744        0.2581601521
 C         -5.7741286856        0.2428273467       -0.0349060493
 H         -5.0473529771       -0.1816121238       -0.7305244609
 H         -6.7102809384       -0.3045411487       -0.1751917992
 C         -5.2991403019       -0.0092005966        1.3945171772
 H         -5.3002038484       -1.0905677469        1.5561410982
 H         -6.0048904716        0.4338537843        2.0999584024
 C         -3.8877417379        0.5067429888        1.7221046778
 H         -3.5275887076       -0.0349951068        2.6013500048
 H         -3.9048884764        1.5641987516        1.9743589620
 H         -5.0985717319        3.5859857957       -0.7464468445
 H         -4.5903313681        2.8447993650        0.7542502541
 H         -3.8369652188        1.9271434345       -2.0594405457
 H         -2.8487815919        2.9597274178       -1.0476642392
 O         -1.9064750595        0.6053283090       -1.4871510849
 C         -1.0386045066       -0.4657865075       -1.3692594051
 O         -0.2850534839       -0.5967881114       -2.3556487617
 O         -2.0770938951       -1.5845818768        1.9002329408
 C         -0.2320071294       -2.4685756790       -0.0069316979
 C          1.1584489051       -2.0772906727        0.4293227545
 C          1.6376967859       -2.4131761633        1.6899091565
 C          2.9035439201       -2.0225884895        2.0928071324
 C          3.7125352642       -1.2789582501        1.2516451417
 C          3.2367313249       -0.9330210100       -0.0056439838
 C          1.9771194178       -1.3406506509       -0.4149479908
 H          1.6120009946       -1.0547350613       -1.3901427904
 N          4.0278483881       -0.1128897858       -0.8478328809
 S          4.1429974933        1.4675664210       -0.2978396089
 O          4.6076411439        2.2495152914       -1.4205707337
 O          4.9757429989        1.4844190806        0.8777267110
 C          2.4730319702        1.9246868293        0.1351951393
 C          2.0102521330        1.6594462982        1.4086846916
 C          0.6906782818        1.9485916004        1.7142975274
 C         -0.1369496901        2.5018633140        0.7499469657
 C          0.3430155020        2.7625023693       -0.5239361491
 C          1.6579119857        2.4625799713       -0.8395182082
 H          2.0652462400        2.6476327440       -1.8207731306
 H         -0.3029097063        3.1843755330       -1.2775377606
 H         -1.1635631281        2.7251754594        0.9950115349
 H          0.3081706085        1.7368450207        2.6998762282
 H          2.6859761942        1.2392632413        2.1354046242
 H          3.6787789322       -0.0956032055       -1.7971733154
 H          4.6892251063       -0.9391108971        1.5558858878
 H          3.2614775764       -2.2932490082        3.0744312598
 H          1.0030250247       -2.9705597271        2.3631152353
 H         -0.7001639652       -3.0161942883        0.8217409136
 C         -0.1864382241       -3.3796561335       -1.2183306991
 C          0.1914910631       -4.8174049121       -1.0324893838
 C         -1.2221534822       -4.4511814717       -1.3698552820
 H         -1.5930986122       -4.6724040107       -2.3594341527
 H         -1.9701006046       -4.5372092004       -0.5951079726
 H          0.7949263221       -5.2932223326       -1.7901426948
 H          0.4014382845       -5.1536504301       -0.0284778172
 H          0.1478662109       -2.8836299521       -2.1202106318
