  62
        -98.93266277
 C         -1.9429934205       -1.3831799201        0.5077665007
 C         -1.6155143503       -0.0777046903        0.0750817400
 C         -2.6807719303        0.9441042698        0.1765326893
 C         -3.8714169304        0.5968033802        0.6977845993
 C         -5.1049972303        1.4452401505        0.8525610286
 C         -5.8518930601        1.6492884698       -0.4761477717
 C         -4.9593733299        1.9506692790       -1.6776222317
 H         -4.2352914699        1.1427137588       -1.7998965611
 H         -5.5921342997        1.9534080385       -2.5691956418
 C         -4.2236512797        3.2875208089       -1.6239368323
 H         -3.6872208896        3.4008177883       -2.5697242823
 H         -4.9555678397        4.0958741990       -1.5591839729
 C         -3.2171267899        3.4526363695       -0.4837840223
 H         -2.6179916798        4.3404799793       -0.7063611627
 H         -3.7228377500        3.6492668601        0.4576358775
 C         -2.2343193600        2.2963812795       -0.3256355614
 H         -1.7401740799        2.1136390789       -1.2871471913
 H         -1.4323807801        2.6126735898        0.3525240485
 H         -6.5748729100        2.4561286899       -0.3458824422
 H         -6.4053732801        0.7330819497       -0.6962413812
 H         -5.7647040605        0.9165706109        1.5440655688
 H         -4.8478867703        2.3987034707        1.3040760681
 O         -4.1278860606       -0.6668815195        1.1424598900
 C         -3.1885567907       -1.6750029396        1.0694171907
 O         -3.5658564608       -2.7673635293        1.5374444313
 H          1.4113883496       -2.3871449213       -1.0167275482
 C          1.5134390995       -2.0452757307        0.0018256517
 C          0.4207011193       -2.0481043301        0.8555747715
 C          0.5903076492       -1.5639589394        2.1503216312
 C          1.8104687292       -1.0739040792        2.5737548411
 C          2.8923090293       -1.0544214198        1.7105722413
 C          2.7358770195       -1.5416060806        0.4209799216
 N          3.8507380796       -1.4792015912       -0.4613716083
 S          3.9069753199       -0.0400140917       -1.3519769391
 O          2.8182499501        0.0125233678       -2.3043035893
 O          5.2285713400       -0.0029698122       -1.9429408189
 C          3.7504897998        1.2349127490       -0.1251251399
 C          4.9034732998        1.7531662192        0.4318420200
 C          4.7948396197        2.7310668898        1.4070133694
 C          3.5405331597        3.1658948601        1.8082099390
 C          2.3946488597        2.6326509799        1.2383070891
 C          2.4923649398        1.6552994994        0.2597116597
 H          1.6163758298        1.2158145692       -0.1928698702
 H          1.4185195097        2.9661051802        1.5534078687
 H          3.4538240097        3.9250713606        2.5696829585
 H          5.6839981797        3.1482364600        1.8516177793
 H          5.8542158498        1.3835088789        0.0839222904
 H          3.8413468596       -2.2334011116       -1.1372883679
 H          3.8494293593       -0.6686032198        2.0217562812
 H          1.9198062290       -0.6985532787        3.5796189409
 H         -0.2610510709       -1.5638186389        2.8179691811
 C         -0.9467213706       -2.5282827502        0.4375522015
 H         -1.2960061308       -3.2566436497        1.1880695919
 C         -0.9410539605       -3.2529300610       -0.9010204180
 C         -2.1735891104       -3.3233295713       -1.7506771282
 C         -0.9964194102       -2.5161907517       -2.2046009985
 H         -0.4071164601       -2.8852420523       -3.0320965382
 H         -1.0588126801       -1.4396160317       -2.1686021091
 H         -2.3909321804       -4.2494514116       -2.2611815277
 H         -3.0530691504       -2.8003029711       -1.4046382286
 H         -0.3283173006       -4.1494155710       -0.8734777474
 O         -0.4895166602        0.2471710493       -0.3837639800
