  62
        -98.94168405
 C         -2.3943329620       -1.2375341878        0.1620402529
 C         -3.3085388624       -0.5341686504        0.9870372015
 C         -4.0563650272        0.5532639788        0.3469025827
 C         -3.8323717716        0.8433758561       -0.9473009964
 C         -4.5247134726        1.9124185427       -1.7483937788
 C         -3.9095900552        3.3091782256       -1.5849638839
 C         -4.1785875709        3.9854253933       -0.2398904037
 H         -3.8815352317        5.0309936356       -0.3426332325
 H         -5.2492389451        3.9690900540       -0.0339201263
 C         -3.4156893896        3.3709133501        0.9421588680
 H         -2.9709188230        4.1682346446        1.5423072179
 H         -2.5912101182        2.7605585265        0.5642084715
 C         -4.2753344418        2.5226818767        1.8799667983
 H         -3.6283370159        2.1085668974        2.6575948581
 H         -5.0208195190        3.1564636246        2.3649818737
 C         -4.9975343172        1.3555893471        1.1940840570
 H         -5.3933445882        0.6952655232        1.9695515028
 H         -5.8267616323        1.7274467339        0.5928714101
 H         -2.8311830054        3.2377302070       -1.7484429779
 H         -4.3226711988        3.9416515919       -2.3741227916
 H         -5.5813531216        1.9451011885       -1.4813281130
 H         -4.4384227062        1.6196070839       -2.7969968429
 O         -2.9285069866        0.1639568489       -1.7003951826
 C         -2.1677186262       -0.8708749297       -1.1661727539
 O         -1.3546703505       -1.3604246934       -1.9709475807
 O         -3.4862725906       -0.7994382747        2.2060404194
 C         -1.5780052389       -2.3461097698        0.8038804272
 C         -0.1166115222       -2.1456547374        0.4897290242
 C          0.6688399610       -3.0742023006       -0.1786468640
 C          1.9963459528       -2.7960340567       -0.4556351597
 C          2.5684774095       -1.5974119986       -0.0719365480
 C          1.7904555302       -0.6592731865        0.5942239680
 C          0.4643848547       -0.9436506175        0.8767191713
 H         -0.1442530014       -0.2083043332        1.3905498852
 N          2.3623116222        0.5623859286        0.9953899327
 S          3.1928403036        1.4595998632       -0.1573691645
 O          3.1284332327        2.8257917735        0.3170250305
 O          2.6913408339        1.2192128729       -1.4904755326
 C          4.8691327261        0.8768999280       -0.0141482297
 C          5.4714790912        0.9248759264        1.2279123681
 C          6.7777438447        0.4805550819        1.3551582215
 C          7.4566105501        0.0016475269        0.2444454143
 C          6.8390563804       -0.0363160144       -0.9962661610
 C          5.5318073569        0.4055651943       -1.1302820208
 H          5.0078171719        0.3888539452       -2.0728567001
 H          7.3680560096       -0.4084609763       -1.8588812671
 H          8.4731235286       -0.3441250265        0.3462231487
 H          7.2612967175        0.5084508540        2.3182808206
 H          4.9099241385        1.3071924719        2.0637673545
 H          1.7233812267        1.1569126906        1.5040474184
 H          3.5991747484       -1.3750737442       -0.2951948032
 H          2.5936160109       -3.5231311734       -0.9843851791
 H          0.2347639653       -4.0032258977       -0.5093122149
 H         -1.7141249150       -2.1870118238        1.8872599689
 C         -2.0776037935       -3.7525716365        0.5133703899
 C         -3.5252588722       -4.0097705489        0.2227826630
 C         -2.5006225514       -4.1949727013       -0.8540206923
 H         -2.2602627980       -5.2021796491       -1.1619537586
 H         -2.4512054229       -3.4715858656       -1.6522923623
 H         -3.9876340252       -4.8857741211        0.6522224581
 H         -4.1825216230       -3.1544220829        0.1609299072
 H         -1.5748067240       -4.4923209332        1.1288190919
