  62
        -98.94763126
 C         -0.7803377209       -1.2699282174        0.0494351023
 C         -1.5003261599       -0.6273380946        1.0835589680
 C         -2.4109453514        0.4442567835        0.6598436910
 C         -2.4612303414        0.7882870580       -0.6401840383
 C         -3.4144959616        1.7881506425       -1.2261124188
 C         -4.7155809752        1.1080470926       -1.6781987787
 C         -5.3332817658        0.1837678871       -0.6287491608
 H         -6.2577136901       -0.2155146309       -1.0517267958
 H         -4.6651562402       -0.6642358406       -0.4613644918
 C         -5.6380635575        0.8603340273        0.7150788143
 H         -5.6557922532        1.9434722717        0.5894664263
 H         -6.6342075735        0.5558382969        1.0430006122
 C         -4.6685748287        0.4973302051        1.8414306373
 H         -4.5789214608       -0.5896368319        1.9130376458
 H         -5.0926616230        0.8526561342        2.7844841988
 C         -3.2593171499        1.0907459190        1.7184831843
 H         -3.3333135469        2.1677448618        1.5562180896
 H         -2.7408670692        0.9187915684        2.6665155293
 H         -5.4343079045        1.8836569846       -1.9486739198
 H         -4.5033273261        0.5149637636       -2.5706099629
 H         -3.6332255347        2.5568104318       -0.4880798417
 H         -2.9400792556        2.2467224483       -2.0942345403
 O         -1.6839847513        0.2100014873       -1.5901845785
 C         -0.8486585658       -0.8521619175       -1.2797123217
 O         -0.2324653256       -1.3239814988       -2.2533140921
 H          1.5248024997       -0.2192875825        0.5032908706
 C          2.0950660980       -1.0188007090        0.0532251679
 C          1.5073152097       -2.2681879689       -0.0980842086
 C          2.2579379622       -3.2913423456       -0.6634970662
 C          3.5582393842       -3.0591739084       -1.0763847088
 C          4.1373146434       -1.8132190095       -0.9283947785
 C          3.3961305972       -0.7828389418       -0.3588967047
 N          3.9441857859        0.4975372866       -0.2309637368
 S          3.3737555939        1.6193274960        0.8551724625
 O          4.3987268146        2.6420971213        0.8711003086
 O          3.0604485999        1.0278612599        2.1352927041
 C          1.9134363277        2.2956581922        0.0967407579
 C          0.7868399492        2.5111544371        0.8640473120
 C         -0.3138894039        3.1193369106        0.2829205419
 C         -0.2713293117        3.4938829589       -1.0504480192
 C          0.8622017313        3.2567317562       -1.8121234870
 C          1.9694373163        2.6579336864       -1.2341669210
 H          2.8709366140        2.4690652444       -1.7928088235
 H          0.8874308359        3.5400410525       -2.8520880827
 H         -1.1267319811        3.9754704978       -1.4967572840
 H         -1.1955616066        3.2986126328        0.8762151785
 H          0.7877336082        2.1938659690        1.8955987295
 H          4.9269699329        0.5889889480       -0.4361267862
 H          5.1502776507       -1.6321094399       -1.2533818165
 H          4.1294879349       -3.8612942737       -1.5184924690
 H          1.8246917675       -4.2704689735       -0.7849989700
 C          0.0934774992       -2.4616356265        0.3897054911
 H          0.1177093210       -2.5054539656        1.4897805754
 C         -0.5521776467       -3.7303068440       -0.1329917310
 C         -0.3950207328       -5.0266941086        0.6024855589
 C         -1.7117653185       -4.3119643132        0.6168776257
 H         -2.5342203643       -4.7289929494        0.0551174972
 H         -2.0130909624       -3.8109484483        1.5254632869
 H          0.1930639573       -5.0201591983        1.5078642186
 H         -0.3158041617       -5.9387219118        0.0301047979
 H         -0.5938734518       -3.7558965533       -1.2165606881
 O         -1.3991591166       -0.9454734061        2.3003827530
