  62
        -98.93763002
 C          2.6159888032        1.1312678916        0.2182604574
 C          2.7355442425        0.2752852545       -0.9021887963
 C          3.5702733030       -0.9243440338       -0.7159682489
 C          4.1618377049       -1.1418045045        0.4710523758
 C          5.0781095682       -2.2731458374        0.8647625290
 C          4.6726070171       -3.6912152572        0.4360919533
 C          3.1594225594       -3.9397928415        0.3503483858
 H          2.9178934542       -4.8475330591        0.9067400284
 H          2.6165818929       -3.1175477838        0.8204538766
 C          2.6642806563       -4.1249386895       -1.0864356482
 H          3.3724077792       -4.7634886422       -1.6189639377
 H          1.7059673430       -4.6492856075       -1.0620549742
 C          2.4552984312       -2.8374480705       -1.8833254923
 H          1.5853329882       -2.2977619875       -1.4984113123
 H          2.2271416944       -3.1145426782       -2.9151456889
 C          3.6428506560       -1.8611228917       -1.8870749332
 H          4.5908486769       -2.3924199991       -1.9202102359
 H          3.5596037374       -1.2356940683       -2.7798388982
 H          5.1231850393       -3.9226881261       -0.5280477414
 H          5.1126740061       -4.3777356263        1.1612517870
 H          6.0764807202       -2.0535603561        0.4758951606
 H          5.1391005082       -2.2229020844        1.9545508411
 O          4.0147560095       -0.2896652498        1.5263023207
 C          3.2358270719        0.8514111636        1.4335185175
 O          3.1701448093        1.5183221527        2.4875725495
 H          0.3221877494        0.3549550831        1.0794706052
 C         -0.2512619407        0.9328084079        0.3632970463
 C          0.3440269018        2.0278625597       -0.2509682834
 C         -0.4113669265        2.7701222076       -1.1492820613
 C         -1.7164615639        2.4080561257       -1.4358182650
 C         -2.2958594543        1.3042855514       -0.8383526589
 C         -1.5543257301        0.5615832025        0.0712512688
 N         -2.1326859954       -0.5691090373        0.6783392883
 S         -3.5930096269       -0.3548040461        1.4831717235
 O         -3.7187420670        0.9897907012        1.9969545870
 O         -3.6481922390       -1.4230528986        2.4574510561
 C         -4.8229163916       -0.6475020690        0.2299688912
 C         -5.7812039680        0.3123426189       -0.0305438214
 C         -6.7368668629        0.0580089998       -1.0021016695
 C         -6.7171138560       -1.1447644084       -1.6914630513
 C         -5.7486586034       -2.0989614313       -1.4164283411
 C         -4.7915650327       -1.8519590715       -0.4452794176
 H         -4.0247110580       -2.5673705719       -0.1989486306
 H         -5.7360920002       -3.0328554886       -1.9549529207
 H         -7.4608891906       -1.3400732222       -2.4477353881
 H         -7.4906714283        0.7981993551       -1.2171359235
 H         -5.7527204620        1.2350139016        0.5267245518
 H         -1.4894986055       -1.0856971437        1.2608868320
 H         -3.3082583203        1.0135171027       -1.0664759082
 H         -2.2891684869        2.9920438920       -2.1398810744
 H          0.0232873341        3.6321012084       -1.6280334581
 C          1.7637573740        2.3824394232        0.1234534163
 H          1.7467105106        2.8169594474        1.1346408189
 C          2.4049868934        3.3770584394       -0.8227668285
 C          2.2425647682        4.8497764348       -0.5998533426
 C          3.5623607414        4.1924946909       -0.3328457094
 H          4.3825276646        4.3833993300       -1.0084225067
 H          3.8674071931        4.0502291453        0.6941217798
 H          1.6547834055        5.1662436908        0.2487544182
 H          2.1600757111        5.4959403181       -1.4607882444
 H          2.4453734156        3.0116829619       -1.8423568826
 O          2.1781063220        0.5002205008       -2.0066545827
