  62
        -98.93924529
 C         -2.5564073685       -0.2844189322        0.0449620672
 C         -2.1926825917       -1.2835658983       -0.8860073355
 C         -1.5515632934       -2.4910330522       -0.3414002581
 C         -1.3639240512       -2.5932916001        0.9858905947
 C         -0.7898208765       -3.7440147239        1.7761837237
 C          0.4286899175       -4.4751229295        1.2021647226
 C          1.4376695106       -3.5776427936        0.4710178480
 H          1.2179991218       -2.5243977147        0.6578655266
 H          2.4373892768       -3.7730844936        0.8647487696
 C          1.4733710258       -3.8253269972       -1.0385682562
 H          2.4144354708       -3.4342483933       -1.4336569618
 H          1.4572175353       -4.9026184992       -1.2224502977
 C          0.3485945009       -3.1636759740       -1.8327234273
 H          0.4781759170       -2.0768658415       -1.8062051196
 H          0.4478604162       -3.4697354344       -2.8777320827
 C         -1.0778864138       -3.4904978330       -1.3572092427
 H         -1.1438085606       -4.5099576124       -0.9841108095
 H         -1.7505843678       -3.3888847702       -2.2136242835
 H          0.9219526635       -4.9660027628        2.0431664584
 H          0.0985366730       -5.2639230221        0.5274316176
 H         -0.5308569698       -3.3147395233        2.7471592031
 H         -1.5927906637       -4.4680942725        1.9468943991
 O         -1.7529863694       -1.6143994073        1.8511110070
 C         -2.2987539869       -0.4227878626        1.4075041417
 O         -2.5258872371        0.4064614811        2.3103965449
 O         -2.4011964117       -1.1731193526       -2.1266836063
 C         -3.0917871000        1.0399774422       -0.4676121478
 C         -2.0759955223        2.1233748800       -0.1890335438
 C         -2.4052791227        3.4161645904        0.1941320568
 C         -1.4082207040        4.3490280042        0.4320348649
 C         -0.0723521798        4.0126555330        0.3188196561
 C          0.2671849034        2.7171072794       -0.0607206328
 C         -0.7324184387        1.8046323669       -0.3429576578
 H         -0.4582137596        0.8132799606       -0.6721627737
 N          1.6136361334        2.3113502710       -0.1105666755
 S          2.0199560750        0.7052196865       -0.3644328070
 O          1.7779189249        0.3101539702       -1.7367268112
 O          1.3974090717       -0.0895910977        0.6627980989
 C          3.7766446654        0.7982541331       -0.0780256092
 C          4.2294505378        0.8396685619        1.2269108161
 C          5.5913007824        0.9419810141        1.4614743576
 C          6.4736573191        1.0013806564        0.3927089686
 C          6.0052686088        0.9555006566       -0.9115343619
 C          4.6438586428        0.8537391657       -1.1522326974
 H          4.2337694083        0.8051029933       -2.1481843679
 H          6.6934123673        0.9980149574       -1.7403292271
 H          7.5331498670        1.0808962511        0.5781213584
 H          5.9587300684        0.9742600030        2.4745037727
 H          3.5056537280        0.7813304932        2.0234808642
 H          2.2515338524        2.9714412092       -0.5282589051
 H          0.7016940350        4.7339024194        0.5280492737
 H         -1.6787315359        5.3524098772        0.7242652938
 H         -3.4405391665        3.6932860204        0.3098155666
 H         -3.1711462468        0.9201291181       -1.5595922495
 C         -4.4649717499        1.3410258153        0.0930598731
 C         -5.4538813456        2.1304900598       -0.7104073321
 C         -5.6563874130        0.6598322126       -0.5088017304
 H         -6.4473121010        0.3299093237        0.1475910489
 H         -5.4772889316       -0.0020283377       -1.3437885752
 H         -6.1117482649        2.8116822992       -0.1921838644
 H         -5.1476102147        2.4679562112       -1.6891414784
 H         -4.4529239807        1.4722089715        1.1689791257
