  62
        -98.94192458
 C         -1.1594093599        1.3898716964       -0.5031974776
 C         -2.1600444596        1.1819402383        0.4716069825
 C         -3.2867794044        0.3043228824        0.0928193202
 C         -3.2774188199       -0.2776089216       -1.1208721518
 C         -4.2799082697       -1.2361790480       -1.7079944910
 C         -4.1513266682       -2.6532168180       -1.1294386604
 C         -4.0220943011       -2.7146775554        0.3899488266
 H         -3.8584251998       -3.7601383359        0.6654509738
 H         -3.1307828848       -2.1623503697        0.6946995245
 C         -5.2339046725       -2.2071863562        1.1686587141
 H         -6.1168322900       -2.7736560578        0.8645760497
 H         -5.0496916402       -2.4209390302        2.2245600224
 C         -5.5401818202       -0.7130899394        1.0355309966
 H         -6.0587506533       -0.4970412697        0.1052135868
 H         -6.2294680466       -0.4500136093        1.8430786199
 C         -4.3266235185        0.1989120857        1.1824443267
 H         -4.6785213207        1.2241547457        1.3492235127
 H         -3.7824955212       -0.0693660018        2.0953982509
 H         -3.2563705553       -3.1142858631       -1.5558681503
 H         -5.0175520920       -3.2358485497       -1.4484897098
 H         -5.2881005796       -0.8553199273       -1.5749545416
 H         -4.0785198339       -1.2807240499       -2.7807904824
 O         -2.2641069886       -0.0821142837       -2.0137276446
 C         -1.1871202871        0.7328153388       -1.7318546253
 O         -0.3305110538        0.7950656309       -2.6389859647
 H          0.5680897507       -0.3045150624        0.1705153264
 C          1.0512550092        0.3020100220        0.9209545381
 C          0.8568583142        1.6761290158        0.9200063720
 C          1.4637822332        2.4302108124        1.9164673987
 C          2.2324859394        1.8127082836        2.8884201291
 C          2.4375165967        0.4447497894        2.8738684831
 C          1.8392774517       -0.3171925308        1.8768575141
 N          2.0230180764       -1.7069285961        1.8059729032
 S          2.1650838869       -2.4266207625        0.3012130618
 O          0.8735546221       -2.5367276457       -0.3295085280
 O          2.8406019475       -3.6787570094        0.5706740653
 C          3.2493028566       -1.3450922521       -0.6147437258
 C          4.5737178679       -1.3073974748       -0.2202579366
 C          5.4446371497       -0.4444750789       -0.8632809943
 C          4.9778454083        0.3694648968       -1.8847800550
 C          3.6490155549        0.3151699318       -2.2732424672
 C          2.7717991058       -0.5491922558       -1.6353478746
 H          1.7329322802       -0.5987110676       -1.9238336866
 H          3.2761196766        0.9426519774       -3.0673174024
 H          5.6524168953        1.0475381275       -2.3832695291
 H          6.4801180786       -0.4058486953       -0.5661204456
 H          4.8998845371       -1.9647482295        0.5692541259
 H          2.6842627564       -2.0843513197        2.4687258838
 H          3.0447936782       -0.0319851246        3.6277221522
 H          2.6889317972        2.4081912060        3.6642559689
 H          1.3289029151        3.4991189805        1.9365158783
 C          0.0349804757        2.2736951357       -0.1975112376
 H          0.6580438789        2.2596967905       -1.1050857963
 C         -0.4046910813        3.6981786574        0.0689796817
 C          0.4866044270        4.8452381440       -0.2985441142
 C         -0.7531097241        4.5747176714       -1.0952772333
 H         -1.5895452800        5.2506218956       -1.0000098463
 H         -0.6465162112        4.1507738875       -2.0835574485
 H          0.5004364763        5.7133456003        0.3430725824
 H          1.4384030364        4.6144084212       -0.7525122794
 H         -1.0147369898        3.7844908481        0.9603177656
 O         -2.1255079416        1.7018911759        1.6184277232
