  62
        -98.93394646
 C         -2.7085820499       -0.4852926680       -0.0521886861
 C         -2.1373464278        0.3797881529       -1.0180009504
 C         -2.2968192197        1.8276772883       -0.7742832386
 C         -3.0234002038        2.2414961261        0.2783808006
 C         -3.2360386190        3.6651231011        0.7091519768
 C         -2.0385831063        4.2105728366        1.5202735726
 C         -0.6852129518        3.5795335356        1.1856554777
 H          0.0189931952        3.8554650981        1.9750955408
 H         -0.7754594254        2.4912175402        1.2147602929
 C         -0.0672103234        3.9972801425       -0.1515071882
 H          0.3789572028        4.9888350866       -0.0366956815
 H          0.7322286392        3.2874735223       -0.3799719413
 C         -1.0231230219        4.0603914061       -1.3401624268
 H         -0.4565837622        4.4371181058       -2.1972978073
 H         -1.8091865137        4.7849862291       -1.1403905724
 C         -1.6135401612        2.7192410876       -1.7788704565
 H         -2.3200572015        2.9009444296       -2.5987411476
 H         -0.8089705873        2.1043228413       -2.1976797448
 H         -1.9796415162        5.2913647969        1.3871120675
 H         -2.2328989771        4.0107877123        2.5758751995
 H         -3.4341034143        4.2741551320       -0.1694079565
 H         -4.1268353148        3.6828621533        1.3396861589
 O         -3.6186389726        1.3770271707        1.1438140074
 C         -3.4504201347        0.0117744377        1.0221140075
 O         -4.0182214873       -0.6541004581        1.9131293090
 H         -0.0925348583       -0.7662304370       -0.1277672911
 C         -0.0875562617       -1.6749916406        0.4525239138
 C         -1.2474588040       -2.4222568386        0.5910202623
 C         -1.1999444768       -3.5943397273        1.3383544471
 C         -0.0178333327       -4.0084652226        1.9242412491
 C          1.1377402939       -3.2630252414        1.7789575931
 C          1.0994486974       -2.0820189226        1.0449600503
 N          2.2446337547       -1.2790475335        0.9350552210
 S          2.4541522294       -0.2741596162       -0.4054661626
 O          1.6644758928        0.9157241728       -0.2267085028
 O          2.2586982451       -1.0247045579       -1.6250844579
 C          4.1825094044        0.1227900253       -0.2111465754
 C          4.5391540827        1.1762244222        0.6089227814
 C          5.8835452074        1.4637841423        0.7845667277
 C          6.8439234771        0.6967768417        0.1419241459
 C          6.4712320984       -0.3559656303       -0.6803513414
 C          5.1284396037       -0.6486430460       -0.8596680302
 H          4.7910834430       -1.4493218068       -1.4982006092
 H          7.2196731911       -0.9479290953       -1.1819968192
 H          7.8893892568        0.9228412466        0.2799831813
 H          6.1764646502        2.2839189898        1.4199510481
 H          3.7569161069        1.7484302026        1.0802568406
 H          3.0966178038       -1.7671352189        1.1745418985
 H          2.0602892152       -3.5830164052        2.2386001011
 H          0.0051624923       -4.9209508406        2.5002254868
 H         -2.1004626446       -4.1760282578        1.4654869021
 C         -2.5400519589       -1.9938245104       -0.0687078088
 H         -3.3675477594       -2.3925809607        0.5357724186
 C         -2.6252215248       -2.6067695979       -1.4544710463
 C         -3.1664210752       -3.9937597750       -1.6194154380
 C         -3.9678766039       -2.8159875650       -2.0846333548
 H         -4.0702145040       -2.6390036021       -3.1445362127
 H         -4.8361734465       -2.5303420310       -1.5082906844
 H         -2.7152071368       -4.6342970096       -2.3614782543
 H         -3.5043443629       -4.5127968945       -0.7355644896
 H         -1.8139884912       -2.3005032455       -2.1029813343
 O         -1.5107220872       -0.0102701464       -2.0397228485
