  62
        -98.93989952
 C         -1.8500639258       -0.6055191327        0.0027044543
 C         -2.3678486071        0.6962583787        0.2277862620
 C         -3.7690013017        0.9197284489       -0.1497644122
 C         -4.4692928178       -0.0915975441       -0.6942163119
 C         -5.9192652278       -0.0251468236       -1.0754600201
 C         -6.8197078050       -0.4679644913        0.0862969912
 C         -6.4870837714        0.2062196460        1.4173536038
 H         -7.2040047045       -0.1595892946        2.1556038871
 H         -5.4961096165       -0.1176779134        1.7435734450
 C         -6.5296810415        1.7402771559        1.3801534099
 H         -7.0910003203        2.0747531554        0.5069822385
 H         -7.0620802894        2.0976696128        2.2641022392
 C         -5.1557668133        2.4133468625        1.3862383024
 H         -4.5545111135        2.0136073913        2.2068349946
 H         -5.3000476466        3.4802089952        1.5772419620
 C         -4.3446619126        2.2869386061        0.0903437644
 H         -4.9554221049        2.6023668823       -0.7582440577
 H         -3.4879702717        2.9632324004        0.1669125078
 H         -7.8567273666       -0.2571697807       -0.1809962614
 H         -6.7140142493       -1.5477117194        0.2138874471
 H         -6.1645449571        0.9928809511       -1.3718643812
 H         -6.0827618882       -0.6909027173       -1.9244872163
 O         -3.9375182589       -1.3180765637       -0.9155387798
 C         -2.6214821358       -1.6145931254       -0.5762950742
 O         -2.2929277229       -2.7843942647       -0.8418116127
 H          1.6347606030        0.9361012615        0.2816467408
 C          1.5250424772        0.3723187141       -0.6324463863
 C          0.5175296907       -0.5743761927       -0.7481903965
 C          0.3654431036       -1.2507104416       -1.9559932929
 C          1.2078249498       -0.9825303601       -3.0184139545
 C          2.2173811185       -0.0432499356       -2.8982293718
 C          2.3710722315        0.6451097679       -1.7005087195
 N          3.3703348120        1.6151569031       -1.5669156722
 S          4.0873858575        1.9490984032       -0.1023670908
 O          3.2066694785        2.7258861292        0.7328474877
 O          5.3389871396        2.5825470823       -0.4593993778
 C          4.4143494394        0.3688918166        0.6595813201
 C          4.0685598013        0.1740482014        1.9811403252
 C          4.3551491594       -1.0436671347        2.5786942395
 C          4.9751413571       -2.0432086975        1.8452140544
 C          5.3156485527       -1.8325926827        0.5178675849
 C          5.0379087913       -0.6151502778       -0.0822527861
 H          5.3003593229       -0.4215992391       -1.1093527748
 H          5.7954015797       -2.6128134265       -0.0504720556
 H          5.1902223989       -2.9919276493        2.3103667064
 H          4.0875561851       -1.2084170786        3.6101306855
 H          3.5760226622        0.9737462340        2.5115428399
 H          4.0057347138        1.7022649414       -2.3451334613
 H          2.8721497655        0.1682321332       -3.7296829248
 H          1.0795430790       -1.5124424657       -3.9501546176
 H         -0.4221428298       -1.9828707425       -2.0491193767
 C         -0.4061631063       -0.8421689653        0.4124099347
 H         -0.2039072807       -0.0712679382        1.1732275676
 C         -0.1810061859       -2.1994550314        1.0654240183
 C          0.7062902916       -3.2616252927        0.4948154184
 C          1.1402205334       -2.5008705085        1.7087369399
 H          1.1490130499       -3.0034081787        2.6637875458
 H          1.9253158190       -1.7697724990        1.5846280501
 H          0.3876520660       -4.2865009556        0.6074801060
 H          1.2108404306       -3.0628214291       -0.4369238112
 H         -1.0657690854       -2.5485117150        1.5876056031
 O         -1.6865054545        1.6292488828        0.7335931656
