  62
        -98.93366624
 C          2.0997458707        0.6495189216        0.7716669826
 C          2.8806682866       -0.5159127242        0.9648773175
 C          4.3039151921       -0.4557637761        0.5808999393
 C          4.7858875266        0.6957198610        0.0779484989
 C          6.1784756618        0.9929844624       -0.4115306952
 C          6.4660762113        0.3792817353       -1.7909168011
 C          5.9922385344       -1.0612780296       -1.9638984681
 H          4.9167019134       -1.1095082403       -1.7836683706
 H          6.1588859562       -1.3425911011       -3.0070791401
 C          6.7006555012       -2.0891713898       -1.0847520631
 H          6.3351862201       -3.0757461892       -1.3812676961
 H          7.7732024031       -2.0577020826       -1.2892144552
 C          6.4884674559       -1.9401583659        0.4235044479
 H          7.1043607564       -1.1428697086        0.8309191465
 H          6.8309660442       -2.8669035077        0.8932385083
 C          5.0351222508       -1.7495746760        0.8462700817
 H          4.4230087450       -2.5408104536        0.3982023343
 H          4.9622130475       -1.9108553693        1.9288205504
 H          5.9600243997        0.9884653220       -2.5437377690
 H          7.5399392921        0.4368048291       -1.9765377576
 H          6.2563866934        2.0795147399       -0.4915189293
 H          6.9098674953        0.6618167236        0.3196889118
 O          3.9987337296        1.7939365267       -0.0931671404
 C          2.6519248300        1.8121747072        0.2330684598
 O          2.0945307739        2.8989343356       -0.0035868231
 H         -1.3444832694       -1.2653453458        1.2219025510
 C         -1.2297203227       -0.8029252843        0.2535128555
 C         -0.2477592116        0.1552248148        0.0469575300
 C         -0.1224766672        0.7220632178       -1.2180619237
 C         -0.9568041769        0.3308627705       -2.2491661345
 C         -1.9474555986       -0.6118546181       -2.0338680011
 C         -2.0863485626       -1.1775338348       -0.7729132778
 N         -3.0989995586       -2.1220914817       -0.5034081464
 S         -4.2889177658       -1.6547300550        0.5809166757
 O         -3.6866953006       -1.3296279900        1.8467360089
 O         -5.2578368506       -2.7265316870        0.5756658653
 C         -4.9977214792       -0.1943589369       -0.1604405390
 C         -6.1122799558       -0.3243571291       -0.9660198234
 C         -6.6170515071        0.8004321040       -1.5984276914
 C         -5.9947590684        2.0275673903       -1.4244724293
 C         -4.8744206611        2.1408102170       -0.6154704611
 C         -4.3677041595        1.0203027775        0.0237100961
 H         -3.5023628101        1.0740862616        0.6634741748
 H         -4.3890941798        3.0940064886       -0.4789078748
 H         -6.3853276802        2.9021545547       -1.9203251563
 H         -7.4900568212        0.7167427067       -2.2255163265
 H         -6.5660162419       -1.2968886531       -1.0692271656
 H         -3.5359682171       -2.4944572293       -1.3355631161
 H         -2.6048551826       -0.9105726507       -2.8365447813
 H         -0.8430814607        0.7742461578       -3.2266306897
 H          0.6300706483        1.4787948025       -1.3799663965
 C          0.6437217491        0.5722607150        1.1895870263
 H          0.6093386011       -0.2362114425        1.9376472909
 C          0.1476499884        1.8425686969        1.8698024909
 C         -0.9080012141        2.7254683229        1.2814117569
 C         -1.2249588610        1.8770205377        2.4745851296
 H         -1.3534048453        2.3587991417        3.4323095975
 H         -1.8532647509        1.0075241827        2.3394915074
 H         -0.7994052946        3.7905931296        1.4165327630
 H         -1.3249314040        2.4497646435        0.3252685672
 H          0.9358528327        2.3398465032        2.4253036780
 O          2.4069887267       -1.5806147162        1.4490453969
