  62
        -98.93905764
 C         -1.7130126703       -0.8607153361        0.1363636682
 C         -3.0117433729       -1.1490570925        0.6179159327
 C         -3.9781880941       -0.0416427026        0.5749673245
 C         -3.5799822678        1.1574323695        0.1118333913
 C         -4.4645546299        2.3582541566       -0.0686360393
 C         -5.3175776425        2.1958183672       -1.3431025773
 C         -6.8200875042        2.0777499677       -1.0860376569
 H         -7.2176905297        3.0658749624       -0.8450155254
 H         -7.2866680113        1.7538688641       -2.0188590568
 C         -7.2330954550        1.1206996742        0.0364216751
 H         -7.1003857255        1.6092460029        1.0028585649
 H         -8.3044489282        0.9417394928       -0.0768518357
 C         -6.5089469433       -0.2314910065        0.0665595083
 H         -6.1292449083       -0.4871566268       -0.9229987211
 H         -7.2362176779       -1.0003036971        0.3355096510
 C         -5.3625027782       -0.3213384818        1.0912114233
 H         -5.5774909154        0.3362069034        1.9380730888
 H         -5.3161692530       -1.3451644567        1.4741268765
 H         -5.1503942219        3.0476254756       -2.0040923922
 H         -4.9680560862        1.3105038242       -1.8786519134
 H         -5.1009800871        2.4814728869        0.8047721694
 H         -3.8159393077        3.2301082135       -0.1548659511
 O         -2.3171892722        1.3995051485       -0.3266342345
 C         -1.3539133180        0.4015959144       -0.3325482341
 O         -0.2438722366        0.7620363824       -0.7656465698
 H          2.0059607372       -1.9060871621       -0.6062133329
 C          1.8257189466       -1.5812206651        0.4042447232
 C          0.5410668228       -1.5425351914        0.9217187115
 C          0.3643408249       -1.1111558325        2.2349984864
 C          1.4426788583       -0.7185253871        3.0027199200
 C          2.7227616588       -0.7401343186        2.4751514952
 C          2.9112596843       -1.1735412235        1.1695941899
 N          4.2023233895       -1.2331613936        0.6097796958
 S          4.5311968300       -0.3846055892       -0.7965421776
 O          3.6827147911       -0.8491406459       -1.8619198671
 O          5.9550727104       -0.5483641528       -0.9965427266
 C          4.1850018053        1.3165838664       -0.3857324422
 C          2.8779594594        1.7594446870       -0.3545842730
 C          2.6305558047        3.0674797297        0.0347787969
 C          3.6801244715        3.9025667897        0.3837789219
 C          4.9872958531        3.4401110433        0.3467210426
 C          5.2433683088        2.1340806294       -0.0361410688
 H          6.2426422609        1.7320456065       -0.0835072221
 H          5.8033640903        4.0910676281        0.6163136740
 H          3.4772918503        4.9184809863        0.6846130394
 H          1.6097004096        3.4147680365        0.0603642142
 H          2.0670011107        1.1037080988       -0.6304154752
 H          4.9409019995       -1.0600081198        1.2779023297
 H          3.5676314265       -0.4287851338        3.0707101188
 H          1.2873638030       -0.3869344631        4.0182368945
 H         -0.6367430340       -1.0880971194        2.6440268065
 C         -0.6698592458       -1.9631453198        0.1274064513
 H         -1.1394137473       -2.8141107967        0.6431891391
 C         -0.3514989549       -2.3757013272       -1.2942371932
 C          0.1296920557       -3.7649081753       -1.5842002870
 C         -1.2526823664       -3.3507853279       -1.9880194674
 H         -1.4628958800       -3.2031091147       -3.0367980595
 H         -2.0887218847       -3.7395961372       -1.4249897043
 H          0.8738000598       -3.8994724905       -2.3550201855
 H          0.2328534880       -4.4420385005       -0.7497485506
 H          0.0553452089       -1.5637703305       -1.8880157378
 O         -3.3446024926       -2.2784071592        1.0685521035
