  62
        -98.94534275
 C          2.1328699666        0.8864277654        0.0506740312
 C          2.8654041407        0.2509606608        1.0808585562
 C          3.5816310536       -0.9705548549        0.6968338489
 C          3.4678855270       -1.4436797794       -0.5577418716
 C          4.1106856027       -2.6946244872       -1.0928173353
 C          5.5592947484       -2.5007546090       -1.5619037630
 C          6.5860056692       -2.3178538601       -0.4434534044
 H          6.4819341501       -3.1279130294        0.2790755889
 H          7.5741648617       -2.4116040046       -0.8980210669
 C          6.5012132355       -0.9660588246        0.2789545094
 H          7.5041884822       -0.5471992595        0.3864353728
 H          5.9246154079       -0.2644356906       -0.3281945949
 C          5.8862148126       -1.0316132604        1.6769277950
 H          6.5264826860       -1.6266740615        2.3317644901
 H          5.8425613880       -0.0165574795        2.0797173826
 C          4.4688770949       -1.6181936120        1.7169607753
 H          4.0422611745       -1.4186113945        2.7031563397
 H          4.5028626313       -2.6965989926        1.5628002523
 H          5.8352235431       -3.3864380677       -2.1387911224
 H          5.5954273161       -1.6412075676       -2.2351447925
 H          4.0733649823       -3.4789090488       -0.3359815506
 H          3.5095341949       -3.0097529974       -1.9486652812
 O          2.7127759292       -0.8293915579       -1.5075666775
 C          2.0435210567        0.3563213194       -1.2368527354
 O          1.4160506206        0.8236482530       -2.2055211347
 O          2.9098429031        0.6780098855        2.2664976840
 C          1.3813166675        2.1679133646        0.3638579129
 C         -0.0944437415        1.9661871432        0.1221597262
 C         -0.8765256986        2.8295817499       -0.6326216679
 C         -2.2204051118        2.5631572976       -0.8324076058
 C         -2.8137500804        1.4431801412       -0.2805495042
 C         -2.0422659402        0.5763404796        0.4828543921
 C         -0.6980459039        0.8462768563        0.6820655185
 H         -0.0964549604        0.1655572293        1.2730119038
 N         -2.6394322063       -0.5601627249        1.0608609057
 S         -3.4778527128       -1.5987978216        0.0384267524
 O         -3.4474645009       -2.8843861337        0.7027756103
 O         -2.9564405937       -1.5585383115       -1.3083585589
 C         -5.1432195841       -0.9693859511        0.0729215143
 C         -5.7730009158       -0.6231009611       -1.1063985083
 C         -7.0714655875       -0.1398464542       -1.0553778516
 C         -7.7132097663       -0.0132979066        0.1670969019
 C         -7.0674331026       -0.3683865173        1.3422118082
 C         -5.7700385039       -0.8530865548        1.2982683091
 H         -5.2336281240       -1.1434587671        2.1860723464
 H         -7.5698733382       -0.2687900440        2.2908216221
 H         -8.7227838375        0.3643908630        0.2040808825
 H         -7.5748256373        0.1362061195       -1.9680202359
 H         -5.2309268925       -0.7327619189       -2.0323240038
 H         -2.0076108757       -1.0881126371        1.6463439037
 H         -3.8581004445        1.2299858980       -0.4395973387
 H         -2.8141860910        3.2383167262       -1.4294122743
 H         -0.4322435235        3.7050781587       -1.0763627694
 H          1.5314305546        2.3380876348        1.4405980489
 C          1.9728461291        3.3329864749       -0.4005700019
 C          1.8689386478        4.7241593010        0.1472246370
 C          3.1888340833        4.0151210332        0.1483750136
 H          3.9529005686        4.3409104734       -0.5414293437
 H          3.5770150155        3.6539747733        1.0896595529
 H          1.7285776081        5.5412097455       -0.5440825499
 H          1.3621841983        4.8519815061        1.0916219637
 H          1.9175471028        3.1964029759       -1.4748091523
