  62
        -98.93928147
 C         -1.9283125413       -1.4052270796        0.1169982635
 C         -1.7882979485        0.0016466771        0.1139723783
 C         -3.0004121893        0.7771413125        0.4302749069
 C         -4.1539740256        0.1303864869        0.6701899541
 C         -5.4982626841        0.7100872013        1.0336196854
 C         -5.9524476053        1.9722695433        0.2879124776
 C         -5.4837884576        2.0697479139       -1.1714205018
 H         -5.0636836882        1.1157725592       -1.4948276736
 H         -6.3462185976        2.2772627099       -1.8076756563
 C         -4.4563499810        3.1819640889       -1.3956387364
 H         -4.4476657319        3.4434181317       -2.4565416107
 H         -4.7752440635        4.0688682081       -0.8436588721
 C         -3.0204520885        2.8371389641       -1.0021847756
 H         -2.4201509284        3.7453938819       -1.0955529501
 H         -2.6084777391        2.1074702276       -1.7044753128
 C         -2.8435794275        2.2707093912        0.4156487911
 H         -3.5182344419        2.7523721165        1.1191622740
 H         -1.8148148596        2.4651182879        0.7309072545
 H         -5.6162703402        2.8559978959        0.8283671458
 H         -7.0432598432        1.9811174872        0.3208030403
 H         -6.2122773538       -0.0974669045        0.8543567011
 H         -5.5031263418        0.9089700014        2.1093460006
 O         -4.2461342711       -1.2303306762        0.6424358295
 C         -3.1464653214       -2.0283914724        0.3791498546
 O         -3.3773794681       -3.2543182057        0.4110072396
 O         -0.7017081730        0.5868868611       -0.1266822874
 C         -0.7262114010       -2.2818917529       -0.1822659690
 C          0.4161287073       -1.9270422895        0.7385046956
 C          0.1775596518       -1.8493355933        2.1089292873
 C          1.1932220991       -1.5215733556        2.9850561002
 C          2.4682242023       -1.2580002831        2.5143047718
 C          2.7211506970       -1.3451489993        1.1511491556
 C          1.7001753009       -1.6914699407        0.2742838167
 H          1.9265829880       -1.7554606256       -0.7763332978
 N          4.0158539878       -1.1227147930        0.6529939619
 S          4.3130126529       -0.1500116509       -0.6740011946
 O          3.6093287068       -0.6540236770       -1.8247538554
 O          5.7559156246       -0.1153221558       -0.7741585535
 C          3.7181688655        1.4733574393       -0.2320928235
 C          2.3610674912        1.7250677032       -0.2135267617
 C          1.9242753082        2.9872986442        0.1582163050
 C          2.8391431004        3.9696835933        0.5019229520
 C          4.1993141083        3.6987472304        0.4805684480
 C          4.6441864551        2.4394196994        0.1140041468
 H          5.6913492795        2.1855444133        0.0779035237
 H          4.9113490818        4.4630961386        0.7477037777
 H          2.4902144825        4.9499160702        0.7867787496
 H          0.8632984907        3.1796328227        0.1740910448
 H          1.6505669013        0.9574832632       -0.4746811778
 H          4.7056537003       -0.9405946777        1.3679787946
 H          3.2610562417       -0.9933980717        3.1974101021
 H          0.9907624242       -1.4624337016        4.0439255141
 H         -0.8212206100       -2.0451982237        2.4758723208
 H         -1.0374631655       -3.3140034264        0.0371615261
 C         -0.3679489068       -2.1867464249       -1.6511073642
 C          0.2926747224       -3.3386530595       -2.3446355031
 C         -1.1368898275       -3.0032216443       -2.6438891875
 H         -1.3755348683       -2.5628436342       -3.6005204619
 H         -1.9082397816       -3.6539902875       -2.2576425890
 H          1.0417388109       -3.1257774935       -3.0928224316
 H          0.4932686246       -4.2248091907       -1.7613910594
 H         -0.0799204997       -1.1846500750       -1.9502714127
