  62
        -98.94612720
 C         -1.8192314497       -0.9969946701       -0.2892132386
 C         -3.1768689498       -1.2959817698       -0.0242987287
 C         -4.1494978496       -0.2704400997       -0.4242768091
 C         -3.7109010293        0.8589047600       -1.0104334595
 C         -4.5866063490        2.0070611900       -1.4194227199
 C         -4.7188806989        3.0376163304       -0.2892032303
 C         -5.0796169092        2.4269545210        1.0649052199
 H         -4.2516029394        1.8012220609        1.4056589002
 H         -5.1754572091        3.2490393412        1.7774531596
 C         -6.3719835494        1.5986864112        1.0637454300
 H         -6.9608493594        1.8661452316        1.9436931599
 H         -6.9706148292        1.8464043610        0.1864344999
 C         -6.1545230597        0.0853937912        1.1167537306
 H         -5.4807523998       -0.1596463687        1.9417164807
 H         -7.1162318198       -0.3893563686        1.3288155906
 C         -5.6021029097       -0.5545667593       -0.1631851092
 H         -6.2126871995       -0.2545073895       -1.0173277093
 H         -5.6788962899       -1.6401300693       -0.0509861288
 H         -3.7661259489        3.5616808703       -0.1852310404
 H         -5.4787930388        3.7670803205       -0.5752102006
 H         -4.1364343988        2.4897650497       -2.2884532000
 H         -5.5684146791        1.6273903801       -1.6956427799
 O         -2.3992043592        1.1054966097       -1.2582044294
 C         -1.4201616694        0.1887492796       -0.9044204890
 O         -0.2600244393        0.5422964693       -1.1852389890
 O         -3.5555000901       -2.3663738695        0.5232723016
 C         -0.7554844400       -2.0122849202        0.0862800018
 C          0.2800082401       -1.3802005001        0.9821263717
 C         -0.1420080299       -0.7008670996        2.1232063814
 C          0.7706574201       -0.1034829095        2.9696997113
 C          2.1261529301       -0.1644349899        2.6939848515
 C          2.5593203501       -0.8473082804        1.5649683218
 C          1.6388489601       -1.4600467005        0.7235346519
 H          2.0062564401       -1.9799626408       -0.1446022479
 N          3.9320138201       -0.9573042707        1.2768367219
 S          4.5329316704       -0.5099567113       -0.2198686082
 O          3.9050889003       -1.2862753816       -1.2565701480
 O          5.9666816303       -0.6565460716       -0.0920026080
 C          4.1314954107        1.2208018487       -0.3819179888
 C          2.8396233908        1.5963066988       -0.6911717090
 C          2.5399783811        2.9486911289       -0.7590705295
 C          3.5243552112        3.8946187288       -0.5202176097
 C          4.8171404011        3.4990435886       -0.2100483495
 C          5.1239983509        2.1506359986       -0.1350577490
 H          6.1149901408        1.7964661785        0.0990773712
 H          5.5828888313        4.2354038085       -0.0259927996
 H          3.2821143315        4.9442572388       -0.5776613901
 H          1.5300381712        3.2412306290       -0.9994012697
 H          2.0777671907        0.8556803789       -0.8768525789
 H          4.5306946901       -0.5834719406        2.0001066319
 H          2.8415443402        0.3074343302        3.3503871914
 H          0.4261507901        0.4201055408        3.8487214911
 H         -1.2015196999       -0.6473303094        2.3346464613
 H         -1.2813289902       -2.7891954799        0.6614284020
 C         -0.1741638400       -2.6459216307       -1.1602175779
 C          0.3749803398       -4.0393154808       -1.1124535274
 C         -0.9170353901       -3.7665556108       -1.8208674076
 H         -0.9348795700       -3.8083226212       -2.8996644376
 H         -1.8355066102       -4.0936283305       -1.3555273076
 H          1.2500677898       -4.2659949312       -1.7031373072
 H          0.3347987796       -4.5600192505       -0.1675533372
 H          0.3204856902       -1.9281805310       -1.8064055781
