  62
        -98.93777493
 C         -1.0508214775       -1.5506500121       -0.4902950646
 C         -1.2304458420       -0.1538499772       -0.6360075742
 C         -2.3729450327        0.4354145001        0.0919709450
 C         -3.1367236753       -0.3464594962        0.8715743323
 C         -4.3566478186        0.0505661972        1.6565282184
 C         -5.6353266515       -0.1887160114        0.8356034898
 C         -6.0463154275        0.9713740329       -0.0703788912
 H         -6.8799055432        0.6235045964       -0.6847244566
 H         -6.4146703731        1.7938331371        0.5463761244
 C         -4.9459754413        1.5049969316       -0.9911530491
 H         -5.4276133889        2.0378262190       -1.8132128474
 H         -4.3929623213        0.6700865181       -1.4249916285
 C         -3.9756340021        2.4609593404       -0.2812473468
 H         -4.3987152537        2.7479452744        0.6814141186
 H         -3.8830315692        3.3795808234       -0.8642411808
 C         -2.5524469239        1.9192509562       -0.0781507478
 H         -1.9375110801        2.1723443031       -0.9476978480
 H         -2.0975700961        2.4179024905        0.7855476041
 H         -6.4597059755       -0.3900337736        1.5227599625
 H         -5.4825565345       -1.0896188284        0.2357856146
 H         -4.2839294114        1.0836926929        1.9837064598
 H         -4.3816271606       -0.5942581316        2.5377095508
 O         -2.9131255650       -1.6832015287        1.0069812353
 C         -1.8751691071       -2.3086721783        0.3437253384
 O         -1.7927335975       -3.5350287031        0.5642009061
 O         -0.4964625146        0.5841988063       -1.3407578113
 C          0.0815174647       -2.3232618558       -1.1502590094
 C          1.2838612883       -2.3290313445       -0.2420138281
 C          1.9361709858       -3.5087014982        0.0946284895
 C          3.0169950367       -3.4880386495        0.9591593800
 C          3.4622453553       -2.2973999491        1.5046399814
 C          2.8175939436       -1.1109577433        1.1695981662
 C          1.7438949590       -1.1342693645        0.2934234086
 H          1.2401742161       -0.2149248912        0.0457696950
 N          3.2619275441        0.1173622152        1.6711727619
 S          2.2562543907        1.4488256286        1.7493756683
 O          2.9742945920        2.3749739018        2.6035281506
 O          0.9272942844        1.1006219904        2.2005852600
 C          2.2284268741        2.1030612037        0.0949256113
 C          1.1625358941        2.8979809765       -0.2715686018
 C          1.1382734493        3.4448342169       -1.5437088252
 C          2.1759201477        3.1866841294       -2.4241061642
 C          3.2428331217        2.3901193043       -2.0391857575
 C          3.2756508082        1.8446133959       -0.7663290132
 H          4.0879113506        1.2157720898       -0.4407796745
 H          4.0466996534        2.1864055172       -2.7284635293
 H          2.1500454477        3.6049848003       -3.4181464380
 H          0.3050910929        4.0597234322       -1.8442042184
 H          0.3662379223        3.0582714000        0.4375550681
 H          3.9379718375        0.0810418620        2.4184720163
 H          4.2973910872       -2.2832590157        2.1879447611
 H          3.5130103892       -4.4106765569        1.2197675666
 H          1.5779798738       -4.4451826258       -0.3070031956
 H         -0.2803978439       -3.3612907822       -1.2270219883
 C          0.3999459142       -1.8486454657       -2.5609347413
 C          1.6220348593       -1.0628803881       -2.9182901642
 C          1.5106817908       -2.4971035178       -3.3338932444
 H          1.3499996100       -2.7269160780       -4.3762612753
 H          2.1225006959       -3.2167020518       -2.8108088521
 H          1.5142489173       -0.2904518753       -3.6638130126
 H          2.3143092395       -0.8079063997       -2.1317548706
 H         -0.5018858251       -1.6078948758       -3.1143927694
