  62
        -98.93915329
 C         -1.8378052751       -1.1447129477        0.1071746156
 C         -3.2145917346       -1.2012308516        0.4463653934
 C         -4.0900536368       -0.2457636623       -0.2404767334
 C         -3.5648198972        0.6216281444       -1.1243452050
 C         -4.3286739716        1.6378049521       -1.9291307513
 C         -4.6066899649        2.9484777664       -1.1801682642
 C         -5.6649086786        2.8577714565       -0.0799251081
 H         -5.9155135086        3.8806381977        0.2081302988
 H         -6.5698989198        2.4031835352       -0.4841946166
 C         -5.2141624659        2.0894525022        1.1703279286
 H         -4.1251467191        2.0033990896        1.1714251696
 H         -5.4915659075        2.6529464886        2.0639631707
 C         -5.8208984335        0.6932415184        1.3094290967
 H         -6.9019349010        0.7746378583        1.4423997194
 H         -5.4058882635        0.2260439130        2.2061211791
 C         -5.5447601013       -0.2367203809        0.1207294436
 H         -5.8226478084       -1.2534911677        0.4092622379
 H         -6.1475447802        0.0601455707       -0.7374199316
 H         -3.6689371321        3.3132851743       -0.7550497671
 H         -4.9433147037        3.6794769920       -1.9188894257
 H         -3.7162209838        1.8646797381       -2.8045702162
 H         -5.2701253414        1.2037810527       -2.2674215275
 O         -2.2360496133        0.6618163617       -1.4048095446
 C         -1.3354229924       -0.1987051204       -0.7873459813
 O         -0.1515495490       -0.0051770242       -1.1207368448
 O         -3.6864886917       -2.0124507788        1.2857300974
 C         -0.9078604725       -2.1278860631        0.7953884875
 C          0.3488502814       -1.4290470480        1.2465650513
 C          0.2421855039       -0.3911342712        2.1691432095
 C          1.3565564149        0.3114854501        2.5840433828
 C          2.6080414817       -0.0072347176        2.0856410372
 C          2.7265690024       -1.0441639818        1.1718405661
 C          1.6072609813       -1.7547573631        0.7639211646
 H          1.7245592901       -2.5350348339        0.0276551444
 N          4.0171237653       -1.3362967477        0.6486785272
 S          4.3724627659       -0.4706046148       -0.7616492210
 O          3.5322777102       -0.9108551854       -1.8550784759
 O          5.7926573988       -0.6526416591       -0.9778205829
 C          4.0304204611        1.2169514985       -0.3273940255
 C          2.7503412169        1.7100223634       -0.4881447637
 C          2.4966082824        3.0211665392       -0.1150544005
 C          3.5135795555        3.8061510665        0.4065382388
 C          4.7928494472        3.2925936211        0.5592075476
 C          5.0561791559        1.9833057203        0.1911213279
 H          6.0329562850        1.5380780452        0.2872505309
 H          5.5813088863        3.9061743967        0.9643070186
 H          3.3060532974        4.8247475118        0.6948531763
 H          1.4998629625        3.4163173562       -0.2316757640
 H          1.9751061006        1.0740860715       -0.8886852450
 H          4.1183217215       -2.3167135664        0.4155847612
 H          3.4874558262        0.5338651841        2.3946845685
 H          1.2517210290        1.1157246271        3.2959101976
 H         -0.7381312879       -0.1333516421        2.5469335202
 H         -1.4630216424       -2.4490148702        1.6928282761
 C         -0.6353486994       -3.3858856053       -0.0166372883
 C         -1.6334442969       -3.9024416024       -1.0078781129
 C         -0.3301315731       -3.3375625975       -1.4831112683
 H          0.4120320324       -4.0165174165       -1.8786814273
 H         -0.3259844978       -2.3707211804       -1.9629526177
 H         -1.7859629931       -4.9692779193       -1.0723204464
 H         -2.5306219445       -3.3226828501       -1.1674778808
 H         -0.1073893048       -4.1364669802        0.5646281166
