  62
        -98.94178579
 C         -2.5350095226       -0.3048206632        0.0266503555
 C         -2.2730866269       -1.3514136203       -0.8842057550
 C         -1.5732516919       -2.5324314660       -0.3495057674
 C         -1.2266398788       -2.5481061257        0.9496463731
 C         -0.4298640368       -3.5946504729        1.6793813112
 C          1.0691083975       -3.2471991501        1.6400241124
 C          1.8289428618       -3.8285911454        0.4493588147
 H          2.8497361848       -3.4417283234        0.4963507327
 H          1.8798274080       -4.9155824506        0.5494915532
 C          1.2432648822       -3.4869777070       -0.9227338997
 H          0.9714002807       -2.4291244043       -0.9520813119
 H          2.0298068863       -3.6296604384       -1.6671236603
 C          0.0378783527       -4.3604554204       -1.3012311179
 H         -0.0206114917       -5.2063084213       -0.6163009641
 H          0.1948730896       -4.7782338986       -2.2982064977
 C         -1.3114399331       -3.6328158422       -1.3426201911
 H         -2.1161702556       -4.3719439114       -1.2568746032
 H         -1.4319074394       -3.1543562217       -2.3201046830
 H          1.5391099407       -3.6140954969        2.5552108895
 H          1.1630747440       -2.1575029895        1.6332049213
 H         -0.7675777613       -3.5713177201        2.7175658767
 H         -0.6180116122       -4.5835162239        1.2715138972
 O         -1.5291177725       -1.5305764698        1.8025006820
 C         -2.1478697855       -0.3763780817        1.3647891001
 O         -2.3175525541        0.4871202530        2.2479892036
 O         -2.5995564960       -1.2956572347       -2.1034115395
 C         -3.1276750780        0.9967687872       -0.4849431012
 C         -2.1199465097        2.0964724238       -0.2488862196
 C         -2.4335891666        3.3431711769        0.2752535603
 C         -1.4307615320        4.2632283285        0.5327114058
 C         -0.1033116236        3.9551950549        0.2986128882
 C          0.2175017873        2.7170192649       -0.2474940320
 C         -0.7918233450        1.8195197331       -0.5464871907
 H         -0.5315323121        0.8631757378       -0.9765700263
 N          1.5508133623        2.3500198494       -0.5078457315
 S          1.9436317567        0.7161343869       -0.3017488088
 O          1.6136749928        0.0110566914       -1.5147552471
 O          1.3680474259        0.2086077305        0.9223824546
 C          3.7165275132        0.8290256889       -0.1479050270
 C          4.4770555406        0.9386755391       -1.2967387129
 C          5.8527415364        1.0586835726       -1.1800603660
 C          6.4415546420        1.0671714769        0.0758585503
 C          5.6656460629        0.9533507931        1.2196398599
 C          4.2889033748        0.8343973261        1.1098735805
 H          3.6451054947        0.7345262042        1.9693946259
 H          6.1256882717        0.9560928020        2.1946419695
 H          7.5124422331        1.1599351042        0.1639790916
 H          6.4594536809        1.1437104887       -2.0670431772
 H          3.9741531710        0.9169116948       -2.2494209579
 H          2.2187874096        2.9534373615       -0.0472082531
 H          0.6779590503        4.6607138832        0.5373658533
 H         -1.6860622730        5.2265639745        0.9477592616
 H         -3.4589285093        3.5879246458        0.4999433601
 H         -3.2513973172        0.8601762620       -1.5699823624
 C         -4.4811932081        1.2682547844        0.1349326093
 C         -5.5100108977        2.0606258993       -0.6136296345
 C         -5.6874622388        0.5839954957       -0.4324806287
 H         -6.4481052984        0.2327915233        0.2483228888
 H         -5.5334554923       -0.0607439731       -1.2855379033
 H         -6.1544811774        2.7240612042       -0.0569916452
 H         -5.2451438826        2.4211262417       -1.5960871269
 H         -4.4275979482        1.3794011780        1.2120609291
