  62
        -98.94969302
 C         -0.8049746593       -1.7848931611       -0.1399906991
 C         -1.9724596993       -1.6435679311        0.6448217408
 C         -2.9724598295       -0.6905471815        0.1455400004
 C         -2.7318765697       -0.0248960420       -0.9988025599
 C         -3.6689573800        0.9688875375       -1.6233859404
 C         -3.3952180503        2.4043566277       -1.1536736211
 C         -3.2478930304        2.5489885185        0.3613089089
 H         -2.3501366402        2.0241503889        0.7005493991
 H         -3.0856932806        3.6090516786        0.5723793184
 C         -4.4563137202        2.0492646586        1.1650815191
 H         -5.3324913702        1.9866306980        0.5180320491
 H         -4.6795655504        2.7790849289        1.9462263388
 C         -4.2422444099        0.7044877689        1.8621835497
 H         -3.3009579699        0.7303073694        2.4185185097
 H         -5.0480306698        0.5656518791        2.5882992698
 C         -4.2323176896       -0.5270828515        0.9475215603
 H         -4.2981455594       -1.4145691112        1.5840571107
 H         -5.1081869596       -0.5071330920        0.2951851903
 H         -4.2145300205        3.0389667274       -1.4974567814
 H         -2.4753667604        2.7604231178       -1.6226869712
 H         -3.5425842600        0.9213676770       -2.7064743104
 H         -4.6917995199        0.6892012873       -1.3770198003
 O         -1.5905083097       -0.1752114621       -1.7179284299
 C         -0.5888405395       -1.0403066916       -1.2989531995
 O          0.4153920105       -1.0618164717       -2.0336718095
 H          0.6289019904       -0.3270016201        1.3604933302
 C          1.5701219405       -0.7943658199        1.1105148504
 C          1.5822610208       -2.0581022002        0.5352176010
 C          2.8101337510       -2.6380330700        0.2384372613
 C          3.9882480708       -1.9630433696        0.5053723609
 C          3.9698059205       -0.6978928694        1.0631435503
 C          2.7473041303       -0.1106752895        1.3669753301
 N          2.6808114500        1.1714610007        1.9415931895
 S          1.5768277597        2.2651432002        1.3301627190
 O          2.0643470894        3.5528179405        1.7818088884
 O          0.2405770798        1.9243271800        1.7502358391
 C          1.7125062797        2.1690961894       -0.4448681510
 C          0.5596355097        2.1106044787       -1.1965270210
 C          0.6545151097        2.0556403981       -2.5769472109
 C          1.9013687697        2.0579261581       -3.1793115409
 C          3.0536558497        2.1241275488       -2.4114252410
 C          2.9627454697        2.1840538094       -1.0309511510
 H          3.8439464297        2.2435497599       -0.4132241010
 H          4.0223473697        2.1242201288       -2.8848656810
 H          1.9740052198        2.0027180277       -4.2539720809
 H         -0.2429409202        1.9904674376       -3.1710198209
 H         -0.3885940103        2.0932273087       -0.6839225509
 H          3.5772246299        1.6102526110        2.0960205993
 H          4.8888930403       -0.1703620090        1.2680714101
 H          4.9341236109       -2.4261679495        0.2695795411
 H          2.8438462112       -3.6210228802       -0.2017334483
 C          0.2676828810       -2.7609676606        0.3014972713
 H         -0.0788825989       -3.1578864303        1.2684671915
 C          0.3703545513       -3.9074445911       -0.6849428981
 C          0.7169183516       -5.2881582908       -0.2157242675
 C         -0.6795310385       -4.9763546513       -0.6599688476
 H         -1.0281040584       -5.3800674019       -1.5986240974
 H         -1.4508341285       -4.8934164212        0.0920612923
 H          0.8899960417       -5.4299783902        0.8404602226
 H          1.3270500618       -5.9113901309       -0.8521126272
 H          0.7348709412       -3.5869356214       -1.6544146083
 O         -2.1751221191       -2.2947850206        1.7067617611
