  62
        -98.94220585
 C          2.5516487553        0.2636867135        0.6075641842
 C          2.2101536758       -0.2614099169       -0.6636227457
 C          2.1008676372       -1.7247700421       -0.7419534408
 C          2.2837236042       -2.4736751335        0.3597804318
 C          2.2523848053       -3.9766408261        0.4318537884
 C          0.8442146656       -4.5700455103        0.5681132959
 C         -0.0049177999       -4.5191229253       -0.7021003216
 H          0.5626186486       -4.9336425016       -1.5361588849
 H         -0.8677099075       -5.1677078009       -0.5382342383
 C         -0.5084091188       -3.1163999445       -1.0679218808
 H         -0.4467495387       -2.4566629378       -0.1984851935
 H         -1.5659476026       -3.1623692092       -1.3404524553
 C          0.2190947120       -2.4544591581       -2.2380041876
 H         -0.1983274264       -1.4508802704       -2.3561612293
 H          0.0215427128       -3.0140606366       -3.1560116333
 C          1.7380331579       -2.3322824911       -2.0632574845
 H          2.2068864610       -3.3111546768       -2.1712085933
 H          2.1182246986       -1.6722043615       -2.8473364785
 H          0.3212482965       -4.0482989108        1.3731786361
 H          0.9580504196       -5.6155941203        0.8641108226
 H          2.8304129888       -4.2547058771        1.3159668123
 H          2.7406568400       -4.3944616667       -0.4492725774
 O          2.5588245999       -1.9279787066        1.5747419167
 C          2.6711535353       -0.5565947963        1.7312190909
 O          2.8841891262       -0.1937593392        2.9067253691
 O          2.0261435031        0.4411336663       -1.6918992162
 C          2.6817004820        1.7590316020        0.8467532450
 C          1.5248061566        2.4744059274        0.1925063883
 C          1.6584716165        3.5644170308       -0.6563908292
 C          0.5385476231        4.1452667401       -1.2266329336
 C         -0.7250666371        3.6418938910       -0.9813204276
 C         -0.8694663574        2.5533547125       -0.1283764523
 C          0.2482722123        2.0013228890        0.4717693082
 H          0.1311815753        1.1548144267        1.1329390071
 N         -2.1436599084        2.0095940201        0.1507916740
 S         -2.3159776970        0.3413400560       -0.0832530709
 O         -1.5663979803       -0.3679975624        0.9221757129
 O         -2.0385877234        0.0097465116       -1.4628523937
 C         -4.0605763982        0.1696615823        0.2429937975
 C         -4.9385238187       -0.0651267154       -0.7972948485
 C         -6.2936326155       -0.1640929485       -0.5213464807
 C         -6.7443881070       -0.0236678878        0.7822457565
 C         -5.8502000814        0.2112223736        1.8166243561
 C         -4.4945198429        0.3091395946        1.5475018757
 H         -3.7613638423        0.4837325773        2.3178826623
 H         -6.2039149573        0.3179796992        2.8293964623
 H         -7.7990451796       -0.0994461083        0.9947744795
 H         -6.9905024734       -0.3493765598       -1.3227585363
 H         -4.5401723533       -0.1709119582       -1.7935878346
 H         -2.8648951387        2.4769567006       -0.3859219682
 H         -1.5937913704        4.0796071591       -1.4505069280
 H          0.6546710656        4.9897040104       -1.8892961173
 H          2.6381898838        3.9448965601       -0.8943684371
 H          2.5717959944        1.8790566318        1.9380991693
 C          4.0412889542        2.3372380115        0.4822829594
 C          5.2635447066        1.4709193811        0.4327059946
 C          4.7039371610        2.0497222323       -0.8302122982
 H          5.2512503933        2.8459182172       -1.3134373681
 H          4.1868371575        1.3950953942       -1.5134652017
 H          6.1891940966        1.8706243223        0.8189581887
 H          5.1349831923        0.4132491140        0.6130476247
 H          4.1805792487        3.3332292776        0.8913139257
