  62
        -98.93430525
 C         -2.3285836611       -0.6236345000       -0.0770608632
 C         -3.5887467275       -0.8577595852        0.5225099431
 C         -4.5214585822        0.2802362239        0.5531458881
 C         -4.1303846779        1.4652236869        0.0537869928
 C         -4.8940199127        2.7656149056        0.0227224176
 C         -6.3772375318        2.7074100668       -0.3694634461
 C         -6.7402106482        1.6109943875       -1.3816282250
 H         -7.3089557329        2.0579994003       -2.1990891419
 H         -5.8329302394        1.1833853111       -1.8117643063
 C         -7.5924942703        0.4946996844       -0.7729987678
 H         -8.3546383112        0.9455812350       -0.1337182428
 H         -8.1109543105       -0.0300515037       -1.5790393229
 C         -6.8242639534       -0.5550384842        0.0290287236
 H         -7.5534337170       -1.2174183482        0.5016340829
 H         -6.2230699995       -1.1701390271       -0.6459529150
 C         -5.8854998956       -0.0026014443        1.1140917929
 H         -5.7461632091       -0.7830069534        1.8671169758
 H         -6.3122311725        0.8729735348        1.5970909157
 H         -6.9855876099        2.5795156993        0.5248026840
 H         -6.6312205546        3.6843217663       -0.7842868813
 H         -4.8017797188        3.2366545525        1.0057740884
 H         -4.3516664216        3.3955178229       -0.6864716155
 O         -2.8956156078        1.6532603147       -0.4933527821
 C         -1.9703181449        0.6251042408       -0.5815973079
 O         -0.8963459329        0.9486442053       -1.1249898004
 O         -3.9182794552       -1.9677517399        1.0191262652
 C         -1.3273663429       -1.7642469973       -0.1401159116
 C         -0.1240659349       -1.3967327956        0.6919983270
 C         -0.2846737019       -1.2672331598        2.0695568761
 C          0.7746778086       -0.8887644612        2.8704222210
 C          2.0185388219       -0.6313166736        2.3188706678
 C          2.1878347138       -0.7502060165        0.9468320445
 C          1.1207102448       -1.1382500548        0.1436710589
 H          1.2644206699       -1.2179110508       -0.9224507243
 N          3.4514749914       -0.5226477217        0.3634866934
 S          4.3295335876        0.8515654553        0.8002521692
 O          4.7411058273        0.7208329778        2.1753194679
 O          3.5974877951        2.0553514601        0.4701581333
 C          5.7426117910        0.6676329947       -0.2696439142
 C          5.7832639076        1.3523823123       -1.4689630615
 C          6.8756801093        1.1767338082       -2.3040943689
 C          7.9007769544        0.3214591738       -1.9290240554
 C          7.8453256894       -0.3591596086       -0.7217184317
 C          6.7568873992       -0.1869750197        0.1182667358
 H          6.6738339679       -0.6875065500        1.0685813606
 H          8.6453017295       -1.0216466540       -0.4331472906
 H          8.7492586579        0.1869118398       -2.5811902295
 H          6.9224386407        1.7067018165       -3.2418876788
 H          4.9673731179        2.0129847762       -1.7164549629
 H          3.3963052195       -0.5643157942       -0.6462868394
 H          2.8481325370       -0.3236159764        2.9335100925
 H          0.6351788963       -0.7907809666        3.9368090345
 H         -1.2579243853       -1.4589899238        2.5007241762
 H         -1.8269669286       -2.6166865189        0.3414086242
 C         -1.0076995500       -2.1312797344       -1.5731588820
 C         -0.4204805847       -3.4746514428       -1.8841441915
 C         -1.8386912775       -3.1712070833       -2.2607228976
 H         -2.0781066733       -3.0310834146       -3.3042310196
 H         -2.6311552668       -3.6323514394       -1.6897477755
 H          0.3143680727       -3.5477093919       -2.6713755145
 H         -0.2480268973       -4.1451490041       -1.0560922868
 H         -0.6877278717       -1.2816252636       -2.1655789482
