  62
        -98.93459019
 C         -2.4366513402       -1.1875566397        0.1165819090
 C         -2.5347525603        0.0363606106       -0.5834766706
 C         -3.8958469903        0.5668013107       -0.7891341902
 C         -4.9534369602       -0.1213709995       -0.3193239702
 C         -6.4414104502        0.1438299905       -0.4207427198
 C         -6.9648882103        1.5135838207       -0.8445738593
 C         -6.6959345101        2.6379960503        0.1548646611
 H         -7.0203475902        3.5790791905       -0.2943785585
 H         -7.3070015400        2.4655865000        1.0443895311
 C         -5.2466163200        2.7799426702        0.6132198809
 H         -5.1998862799        3.6111116299        1.3220377411
 H         -4.9421685400        1.8807038500        1.1525929705
 C         -4.2333373802        3.0590245406       -0.4952591192
 H         -3.2776895702        3.2917083704       -0.0173009293
 H         -4.5443021604        3.9363431608       -1.0658454089
 C         -3.9859450204        1.8991537209       -1.4756285597
 H         -3.0151484405        2.0624325611       -1.9531902998
 H         -4.7367256906        1.8775057012       -2.2620213396
 H         -8.0491163103        1.4139757607       -0.9447689691
 H         -6.5813227805        1.7762864910       -1.8259615893
 H         -6.8279520704       -0.6057051192       -1.1201465800
 H         -6.8553896601       -0.1094542998        0.5603569801
 O         -4.8052333301       -1.3068271797        0.3432584594
 C         -3.5621817301       -1.8619428698        0.5844301689
 O         -3.5911943100       -2.9358019700        1.2191431086
 O         -1.5342374904        0.6618764107       -1.0244941706
 C         -1.0788007401       -1.8150564098        0.3658226685
 C         -0.1598119200       -0.8505300200        1.0759411687
 C         -0.6496039398       -0.0964263404        2.1389839190
 C          0.1680590103        0.7923900794        2.8090135792
 C          1.4926475903        0.9440006595        2.4390429490
 C          1.9995446101        0.1783384899        1.3958096686
 C          1.1745157600       -0.7142213199        0.7250552685
 H          1.5893092798       -1.2899388696       -0.0845127618
 N          3.3592530600        0.2705424800        1.0496384784
 S          3.8575909397        0.0706631005       -0.5493781218
 O          3.1735228596        1.0024031908       -1.4181280613
 O          3.7630206897       -1.3233097793       -0.9014746322
 C          5.5744522298        0.5248227705       -0.3824467619
 C          6.0023889097        1.7671294806       -0.8097616616
 C          7.3363699797        2.1086677006       -0.6488976617
 C          8.2136140598        1.2084766804       -0.0634516122
 C          7.7693699699       -0.0355807798        0.3600194175
 C          6.4378874299       -0.3839693597        0.2001786876
 H          6.0493957099       -1.3415836098        0.5048757174
 H          8.4550960500       -0.7336693099        0.8124151071
 H          9.2507870898        1.4769442903        0.0609590977
 H          7.6854129597        3.0734237607       -0.9802344614
 H          5.2854632596        2.4317572708       -1.2647586912
 H          3.8056758801        1.0806623699        1.4584901786
 H          2.1290805704        1.6449318393        2.9576182191
 H         -0.2304890595        1.3787276591        3.6235281694
 H         -1.6868804897       -0.2093789805        2.4252414592
 H         -1.2572453300       -2.6712370400        1.0342443082
 C         -0.5043848203       -2.3309868293       -0.9381085518
 C          0.3748031796       -3.5438494793       -0.9532675724
 C         -1.0175741605       -3.6207599791       -1.5015120721
 H         -1.1506158107       -3.7000815887       -2.5700254621
 H         -1.7659242304       -4.1467556893       -0.9262709322
 H          1.2073073595       -3.5659653791       -1.6409126825
 H          0.5734626998       -4.0273967696       -0.0085869726
 H         -0.2820430505       -1.5325384491       -1.6385598115
