  62
        -98.94351163
 C          1.7122285013        1.3783490604        0.6355853698
 C          2.5946978162        1.0343851488       -0.4177579105
 C          3.4177641008       -0.1654772329       -0.1956200605
 C          3.2657540047       -0.8773927327        0.9351354199
 C          4.0065957376       -2.1411666169        1.2615610985
 C          3.2416831195       -3.3808534924        0.7780526944
 C          2.7699376321       -3.2870628790       -0.6729701353
 H          2.2725563636       -4.2284515029       -0.9164195322
 H          2.0244378008       -2.4928963642       -0.7530534760
 C          3.8904547915       -3.0306892984       -1.6902574401
 H          4.8576006809       -3.2719191448       -1.2476001203
 H          3.7498649512       -3.6985549294       -2.5427995131
 C          3.9283984218       -1.6048785219       -2.2428551152
 H          2.9358945985       -1.3229850197       -2.6030266204
 H          4.6041083153       -1.5911290527       -3.1022677190
 C          4.4100438263       -0.5250030383       -1.2660326270
 H          5.3609055431       -0.8276960581       -0.8225502908
 H          4.5756112970        0.3908110772       -1.8408531297
 H          3.8873466756       -4.2527241580        0.8984252479
 H          2.3665948427       -3.5139024178        1.4180503567
 H          4.9917376724       -2.1060465817        0.8002637680
 H          4.1259819246       -2.1984348931        2.3448490279
 O          2.3741231188       -0.5427765102        1.9027714603
 C          1.5797109079        0.5813440078        1.7763954175
 O          0.8027385724        0.7690833054        2.7352074375
 H         -1.5413884253        1.7043494768        1.4877925931
 C         -1.5476296492        1.7748089452        0.4079319304
 C         -0.4125069703        2.2384172852       -0.2442320622
 C         -0.4165606855        2.2926061992       -1.6331709229
 C         -1.5378319238        1.9009822037       -2.3434732084
 C         -2.6725410955        1.4517905776       -1.6905140367
 C         -2.6725187774        1.3817862226       -0.3033264387
 N         -3.8206489587        0.9282431355        0.3777371468
 S         -4.4267174986       -0.5828530883       -0.0062853156
 O         -4.9360288729       -0.5597720681       -1.3535397008
 O         -5.3812657689       -0.8852730078        1.0348683258
 C         -3.0320845833       -1.6880321946        0.1018437140
 C         -2.7441371985       -2.2668198017        1.3216760003
 C         -1.6394772445       -3.0957611355        1.4270020150
 C         -0.8402505909       -3.3215523607        0.3172106671
 C         -1.1368534932       -2.7250339645       -0.8984643457
 C         -2.2433984336       -1.8987751590       -1.0113075728
 H         -2.5109507987       -1.4254587936       -1.9416744506
 H         -0.5101004132       -2.9014740203       -1.7581763922
 H          0.0190742045       -3.9680962972        0.3994061970
 H         -1.4035066140       -3.5588638155        2.3717462748
 H         -3.3959940948       -2.0722046237        2.1583241533
 H         -3.7427195485        1.0123119378        1.3815653508
 H         -3.5517479907        1.1431277594       -2.2326766320
 H         -1.5298853171        1.9482961438       -3.4220063794
 H          0.4713161785        2.6167016738       -2.1517881308
 C          0.8014115554        2.5968024493        0.5780940693
 H          0.4646707643        2.7629808954        1.6102574776
 C          1.4971764797        3.8525262923        0.0970528761
 C          0.8360974056        5.1762867671        0.3319790209
 C          2.0648307306        4.8041259902        1.1049379130
 H          2.9926667831        5.3055977953        0.8739293633
 H          1.9538470080        4.5541826630        2.1503514911
 H          0.9175403821        5.9357018548       -0.4303049858
 H         -0.1097964215        5.1768332761        0.8528974035
 H          2.0515926997        3.7213774015       -0.8219030755
 O          2.7126880856        1.6828931727       -1.4893887211
