  62
        -98.94941045
 C          1.3464626451        1.6008942180        0.2674658146
 C          1.6198227369        0.6191657951        1.2497911104
 C          2.7946036721       -0.2269648558        1.0113936675
 C          3.5317172870       -0.0286974944       -0.0962856582
 C          4.7394099956       -0.8331645929       -0.4790382763
 C          4.3675837827       -2.0131727551       -1.3865529580
 C          3.2105847066       -2.8649860096       -0.8630630343
 H          2.2821679139       -2.2889937861       -0.8959342413
 H          3.0829755949       -3.6998020691       -1.5565145123
 C          3.4098976609       -3.4111861481        0.5574622540
 H          3.0968675917       -4.4573420145        0.5723192865
 H          4.4675867316       -3.3829225089        0.8242897070
 C          2.5898816864       -2.6884171085        1.6279931909
 H          1.5553754141       -2.6023186891        1.2831991863
 H          2.5869041338       -3.3054180733        2.5309884632
 C          3.0952758937       -1.2945324937        2.0245155359
 H          2.5737325657       -0.9973883362        2.9392202413
 H          4.1655380250       -1.3378713732        2.2381324997
 H          4.0856304056       -1.6219966123       -2.3669401147
 H          5.2522843507       -2.6407589042       -1.5125545698
 H          5.4289511498       -0.1793626905       -1.0163875383
 H          5.2272340958       -1.1959699524        0.4236853751
 O          3.2380036412        0.9206675601       -1.0209967047
 C          2.1169176718        1.7282839638       -0.8877821874
 O          1.9304453052        2.5058204998       -1.8432624301
 O          0.9082453536        0.4571233310        2.2788907508
 C          0.1023400984        2.4560129897        0.4208237395
 C         -0.9278586959        2.0604796711       -0.6108924659
 C         -1.7727308739        2.9629571854       -1.2447077418
 C         -2.7110329011        2.5150815586       -2.1594028201
 C         -2.8460241625        1.1681058997       -2.4447300521
 C         -2.0078960477        0.2569921848       -1.8118454327
 C         -1.0607151393        0.7121967164       -0.9104734125
 H         -0.3985249761       -0.0020591937       -0.4484987546
 N         -2.0939242973       -1.1198090674       -2.0632811776
 S         -1.7973081183       -2.2097045184       -0.8284613022
 O         -0.3892255525       -2.2679828300       -0.5304442417
 O         -2.3923564793       -3.4428335156       -1.2992826834
 C         -2.7336236276       -1.5881644088        0.5568386122
 C         -2.1136598562       -0.9929646516        1.6356862801
 C         -2.8995879971       -0.4807807417        2.6573207624
 C         -4.2801169304       -0.5712167879        2.5855512164
 C         -4.8881768656       -1.1805496299        1.4978118990
 C         -4.1098196631       -1.6910969695        0.4732275218
 H         -4.5423204020       -2.1832150781       -0.3828466811
 H         -5.9623217575       -1.2556266811        1.4454914329
 H         -4.8841059214       -0.1673716668        3.3827158814
 H         -2.4168830579       -0.0097855837        3.4988848324
 H         -1.0376671348       -0.9231772453        1.6778378749
 H         -2.8669230895       -1.4054667742       -2.6452979029
 H         -3.5815604463        0.8242201742       -3.1554688533
 H         -3.3544125724        3.2271981273       -2.6534014691
 H         -1.6910501968        4.0157940075       -1.0296823608
 H         -0.3071767664        2.1941104083        1.4091524574
 C          0.4361618044        3.9322239407        0.4105996359
 C         -0.3903691543        4.8985253442        1.2043072347
 C          0.9966800092        4.5541810662        1.6536555712
 H          1.7746883278        5.2958323915        1.5529807273
 H          1.1122178924        3.9167129100        2.5182212658
 H         -0.5646988577        5.8829517354        0.7968828764
 H         -1.2179716765        4.5012630832        1.7722851750
 H          0.8416109594        4.2611888222       -0.5390741541
