  62
        -98.94421996
 C         -2.0667727161       -1.3226600260       -0.1155326032
 C         -2.4439115757       -0.2761689168       -0.9919434068
 C         -3.8323964120        0.1875104520       -0.8686082417
 C         -4.6627799538       -0.3992623703        0.0117252920
 C         -6.1090906032       -0.0505543437        0.2352135978
 C         -6.3241924153        1.1256364137        1.1975255179
 C         -5.9583676009        2.5004904231        0.6366245822
 H         -6.4572290028        2.6452948640       -0.3221663072
 H         -6.3586681373        3.2451678429        1.3275127341
 C         -4.4502357359        2.7385432134        0.4754895734
 H         -4.1921957849        3.7237587870        0.8706243843
 H         -3.8985997495        2.0043363708        1.0675499203
 C         -3.9499697179        2.6854947304       -0.9682404731
 H         -2.8658355092        2.8267602836       -0.9593315515
 H         -4.3916133112        3.5052842241       -1.5393291534
 C         -4.2511148771        1.3670568156       -1.6930672698
 H         -5.3111400705        1.3056905747       -1.9381838713
 H         -3.6744682557        1.3469756968       -2.6210696602
 H         -7.3828457766        1.1369577876        1.4668163985
 H         -5.7513426321        0.9405022222        2.1091297695
 H         -6.5863793577        0.1674745217       -0.7205113252
 H         -6.5798360924       -0.9372163770        0.6652528097
 O         -4.2699676638       -1.4236390984        0.8144381562
 C         -2.9641929806       -1.8828874663        0.7970948221
 O         -2.7289143430       -2.7881048809        1.6221980570
 H          0.9126805934       -0.0435633613       -1.4426014169
 C          0.9776876262        0.0724526574       -0.3726691290
 C          0.2529695217       -0.7686119668        0.4571459704
 C          0.3350229294       -0.5801527077        1.8338056064
 C          1.1207189683        0.4259542028        2.3647607445
 C          1.8388107933        1.2677545621        1.5331736710
 C          1.7563873772        1.0915286748        0.1588686979
 N          2.5002361013        1.9362274999       -0.6887241134
 S          4.1498547487        1.9789168007       -0.3980840828
 O          4.4224982953        2.8741776416        0.6983371599
 O          4.7606499541        2.3233061383       -1.6626355076
 C          4.5550796324        0.3050853369        0.0689161029
 C          4.9110106387        0.0192163393        1.3708282102
 C          5.1483129565       -1.2991129325        1.7259502597
 C          5.0188597274       -2.3033936248        0.7795632673
 C          4.6623084790       -1.9996602514       -0.5255181802
 C          4.4250106836       -0.6837543207       -0.8862178072
 H          4.1511823443       -0.4117669237       -1.8929626841
 H          4.5623258582       -2.7831905182       -1.2594183544
 H          5.1966974570       -3.3298486338        1.0593125445
 H          5.4269169945       -1.5387161150        2.7394679598
 H          4.9964738406        0.8298076566        2.0757517715
 H          2.3116323411        1.7823119765       -1.6688011728
 H          2.4580724989        2.0585940246        1.9249274059
 H          1.1752900262        0.5575180812        3.4347097491
 H         -0.2347236996       -1.2314275047        2.4822949004
 C         -0.6424491462       -1.8544358694       -0.0872535853
 H         -0.6461769679       -2.6828069482        0.6332181522
 C         -0.2005902610       -2.3825507195       -1.4366886554
 C          1.0713059702       -3.1701596053       -1.5285211074
 C         -0.2500394079       -3.8559130180       -1.7002762670
 H         -0.5333472195       -4.1926991578       -2.6863508315
 H         -0.6037326403       -4.4945618739       -0.9041515169
 H          1.6173529864       -3.3384694679       -0.6126454796
 H          1.6967169091       -3.0387138108       -2.3982468100
 H         -0.4514026329       -1.7248694084       -2.2594231041
 O         -1.6766382763        0.2474632521       -1.8413654108
