  62
        -98.93293357
 C         -2.2506325869       -1.0225859281        0.2914013470
 C         -2.1382552028       -0.0633760593       -0.7433008927
 C         -2.1401902879        1.3587446138       -0.3332774962
 C         -2.3049754753        1.6672405257        0.9647600843
 C         -2.3834587671        3.0325706493        1.5944377298
 C         -3.7257686419        3.7365300979        1.3308129966
 C         -4.2590070688        3.6019954114       -0.0933876849
 H         -4.3474820577        2.5432142492       -0.3434868986
 H         -5.2661979890        4.0264439220       -0.1124498544
 C         -3.4345340702        4.3079179725       -1.1668881443
 H         -3.9600311409        4.1819695396       -2.1168193244
 H         -3.3978561370        5.3768866173       -0.9452668816
 C         -2.0016738036        3.8028179660       -1.3460815077
 H         -1.6145281510        4.2362561058       -2.2730983681
 H         -1.3572480161        4.1598675737       -0.5470466959
 C         -1.8686971416        2.2898252456       -1.4899731996
 H         -2.5107519395        1.9483469300       -2.3102180181
 H         -0.8425329906        2.0569481583       -1.8065771738
 H         -3.6164501922        4.7925093277        1.5829802361
 H         -4.4687337964        3.3027880288        2.0042779453
 H         -2.2710244555        2.8864475039        2.6710999375
 H         -1.5480710651        3.6395482290        1.2570043335
 O         -2.4833398765        0.7094877444        1.9203776667
 C         -2.3968298321       -0.6341404540        1.6238334171
 O         -2.4915617620       -1.3873282306        2.6165579887
 H          0.1176440413       -1.1459943363       -0.7428058534
 C          0.3757277751       -2.0235201878       -0.1699051347
 C         -0.6190164896       -2.8632000135        0.3089037596
 C         -0.2456604453       -3.9903191146        1.0316895975
 C          1.0902518934       -4.2592971005        1.2740300345
 C          2.0756234327       -3.3944615303        0.8325493659
 C          1.7112045032       -2.2635610197        0.1108949816
 N          2.6651135951       -1.3370838607       -0.3432206461
 S          2.2357010085        0.2989793704       -0.2212590682
 O          1.4795435285        0.5212071234        0.9906855268
 O          1.6193323256        0.7153300298       -1.4550300231
 C          3.8524293587        1.0429203228       -0.0877186538
 C          4.3821715522        1.2824669781        1.1662612367
 C          5.6548734805        1.8228074320        1.2644734031
 C          6.3738298471        2.1093637256        0.1135672995
 C          5.8286382085        1.8643115789       -1.1380181057
 C          4.5561363157        1.3252438505       -1.2433242533
 H          4.0865457251        1.1253090198       -2.1923471030
 H          6.3887581741        2.0912440099       -2.0306685403
 H          7.3641189755        2.5290169883        0.1930784008
 H          6.0791750195        2.0177566094        2.2361563613
 H          3.7819882159        1.0516761872        2.0320608159
 H          3.5885194874       -1.5058840542        0.0333084769
 H          3.1152031214       -3.5877676858        1.0492932064
 H          1.3661320935       -5.1388782782        1.8356048307
 H         -1.0108737437       -4.6429709215        1.4257047331
 C         -2.0703990003       -2.5172584032        0.0783221240
 H         -2.6543761711       -3.0052762379        0.8760416182
 C         -2.5984172615       -3.0289691304       -1.2527830237
 C         -1.7056345088       -3.3953588824       -2.3959503733
 C         -2.4156603157       -4.4693415813       -1.6313810210
 H         -3.2374487574       -4.9841913981       -2.1053167619
 H         -1.8234704140       -5.0878337821       -0.9744981293
 H         -2.0414278578       -3.1477426928       -3.3910716664
 H         -0.6406193693       -3.2846286188       -2.2604984694
 H         -3.5479884925       -2.5730708916       -1.5117508579
 O         -2.0428671841       -0.3495364825       -1.9650153916
