  62
        -98.93948636
 C          2.6232677076        1.1961120912        0.2829349569
 C          2.5365689726        0.1630988127       -0.6831874741
 C          3.7505272408       -0.6521146696       -0.8585359039
 C          4.8438957446       -0.3845921671       -0.1232838556
 C          6.1259654509       -1.1629572884       -0.1719256532
 C          6.1262912226       -2.2981294192        0.8614106473
 C          4.8641700274       -3.1602332887        0.8320950002
 H          4.9902383376       -3.9460985149        1.5799998588
 H          4.0103855217       -2.5541779092        1.1441438407
 C          4.5610327316       -3.7961343777       -0.5317852076
 H          5.4575382828       -3.7856261349       -1.1528153511
 H          4.2864945402       -4.8416413825       -0.3768272394
 C          3.4079035317       -3.1418666477       -1.2952340021
 H          3.1382389693       -3.7959861009       -2.1286619264
 H          2.5333097260       -3.0642202478       -0.6442369533
 C          3.6967578204       -1.7534667378       -1.8797479128
 H          2.8717784770       -1.4990927577       -2.5517056397
 H          4.6190700378       -1.7837784707       -2.4635964847
 H          7.0020785759       -2.9251467977        0.6846349692
 H          6.2181710598       -1.8592887364        1.8576761640
 H          6.9497592984       -0.4820972591        0.0492186014
 H          6.2612449257       -1.5680960554       -1.1728539085
 O          4.8874565490        0.6109767343        0.7989399080
 C          3.7799719823        1.4062173031        1.0392045475
 O          3.9458723522        2.2531401860        1.9397660458
 O          1.5134545379       -0.0761360453       -1.3740780463
 C          1.4472795783        2.1070959329        0.5939380384
 C          0.1846865859        1.2949358776        0.7429225293
 C          0.0649080102        0.4388727164        1.8341347915
 C         -1.0734072664       -0.3232031109        2.0144089413
 C         -2.1177303027       -0.2501441854        1.1091780868
 C         -2.0076208116        0.5977648862        0.0163464800
 C         -0.8655503220        1.3689303714       -0.1574640126
 H         -0.7865261383        2.0086912581       -1.0228543025
 N         -3.0580500652        0.6616783101       -0.9153155148
 S         -4.6091625195        0.9452095148       -0.3461004029
 O         -5.3189220462        1.5427927859       -1.4565032329
 O         -4.5894268273        1.7032184774        0.8840184091
 C         -5.2686714419       -0.6816758936       -0.0492164997
 C         -5.2536291569       -1.5912692341       -1.0884209762
 C         -5.7794535963       -2.8558668257       -0.8779131432
 C         -6.3115923999       -3.1865752987        0.3595993844
 C         -6.3212987194       -2.2612995069        1.3920078420
 C         -5.7954652318       -0.9948769409        1.1883481604
 H         -5.7767467443       -0.2448191992        1.9629506878
 H         -6.7353332022       -2.5203518829        2.3532740319
 H         -6.7210504755       -4.1714401836        0.5201263435
 H         -5.7726377721       -3.5785873963       -1.6779390860
 H         -4.8339310427       -1.2947562570       -2.0352437087
 H         -2.8540895647        1.2356480614       -1.7204254579
 H         -3.0077029348       -0.8441512543        1.2401123712
 H         -1.1489210373       -0.9828468680        2.8657182393
 H          0.8832720081        0.3771557194        2.5393231059
 H          1.6807822500        2.5426123856        1.5795469945
 C          1.2950076669        3.2785780739       -0.3654160297
 C          2.4985680559        3.9304986699       -0.9760022114
 C          1.5457295666        3.1605823019       -1.8377237350
 H          0.9060522055        3.7133967216       -2.5109400931
 H          1.8546361994        2.2005865294       -2.2195574002
 H          2.5140291616        5.0070177879       -1.0563917350
 H          3.4637712524        3.4949117866       -0.7620861744
 H          0.4921285888        3.9438987289       -0.0601077403
