  62
        -98.93965257
 C         -2.2498752628       -0.8001450678        0.0968038248
 C         -2.2889106109        0.5745670430        0.4502801516
 C         -3.3329023976        1.3864431142       -0.1875494240
 C         -4.1658749395        0.8062443096       -1.0703289411
 C         -5.3121257857        1.4936441691       -1.7527720515
 C         -6.6071659276        1.3466516326       -0.9414427654
 C         -6.4514571320        1.6972789860        0.5382924676
 H         -7.4330101764        1.5868290051        1.0040969722
 H         -5.7881086875        0.9684855981        1.0097149610
 C         -5.9165915456        3.1117833460        0.8021437170
 H         -6.0372242084        3.7264246786       -0.0905568711
 H         -6.5123653166        3.5696847967        1.5945150708
 C         -4.4568772723        3.1636808770        1.2577930836
 H         -4.2489553648        4.1736581778        1.6212780086
 H         -4.3091512951        2.4782690134        2.0963104583
 C         -3.4098734474        2.8406875675        0.1838190734
 H         -2.4261561943        3.0996138561        0.5871628120
 H         -3.5885871938        3.4548674789       -0.7013548975
 H         -7.3699967167        1.9852452383       -1.3903044903
 H         -6.9444764019        0.3102423033       -1.0136066656
 H         -5.0702828861        2.5462909884       -1.8854951793
 H         -5.4535199181        1.0352991853       -2.7328613196
 O         -4.0863112868       -0.5049286807       -1.4023137726
 C         -3.1428799965       -1.3450563525       -0.8267369805
 O         -3.2256435809       -2.5225822347       -1.2251978987
 O         -1.4922242220        1.0974639435        1.2770980932
 C         -1.1876843622       -1.6519950826        0.7723881458
 C         -0.0155220706       -1.8988791044       -0.1480305061
 C         -0.1113369071       -2.7495441059       -1.2447720775
 C          0.9811306267       -2.9525771627       -2.0675623905
 C          2.1843823155       -2.3184682201       -1.8150312221
 C          2.2928890091       -1.4701743395       -0.7188545055
 C          1.1942783846       -1.2663340873        0.1044986695
 H          1.2835087973       -0.5897766861        0.9416838578
 N          3.5221115987       -0.8580071880       -0.4186277373
 S          3.5484494104        0.6841223700        0.2661199036
 O          3.2236889521        0.5779149129        1.6658761864
 O          2.7475611927        1.5948561325       -0.5218378325
 C          5.2820530697        1.0615998975        0.0839355479
 C          6.1753948631        0.4836742125        0.9664271660
 C          7.5284474852        0.7412415401        0.8152140024
 C          7.9638908563        1.5680009352       -0.2100203171
 C          7.0556773574        2.1430154438       -1.0859932411
 C          5.7007056668        1.8878149504       -0.9414424179
 H          4.9576607226        2.3174944479       -1.5940733218
 H          7.3966821586        2.7880228575       -1.8796921728
 H          9.0175364503        1.7674257992       -0.3254795255
 H          8.2371825811        0.2980972283        1.4960313267
 H          5.7893432366       -0.1440588118        1.7524137980
 H          4.1812401894       -0.9222088265       -1.1830512456
 H          3.0353892860       -2.4802161406       -2.4592246826
 H          0.8928239684       -3.6100823774       -2.9193234749
 H         -1.0540336454       -3.2274675800       -1.4593416736
 H         -0.8223695268       -1.0384525263        1.6079505041
 C         -1.7305537924       -2.9511490410        1.3354891710
 C         -0.9527620343       -3.6553835333        2.4048237721
 C         -2.2474820119       -2.9795482917        2.7409790976
 H         -3.1095112949       -3.5915210096        2.9601496330
 H         -2.2106815645       -2.0588280639        3.3055052404
 H         -0.9232047605       -4.7339303994        2.3946597265
 H         -0.0371915622       -3.1916620204        2.7410342471
 H         -2.2487939144       -3.5571101205        0.6042979570
