  62
        -98.94071659
 C         -2.5396398572       -0.3250181821        0.1982024505
 C         -2.5194629665        0.7777177764        1.0880220997
 C         -2.4125848614        2.1084347403        0.4782400867
 C         -2.3298740569        2.2117666562       -0.8600909507
 C         -2.2037740256        3.5015708967       -1.6172031279
 C         -0.7363742897        3.8640095484       -1.8793532543
 C          0.1563973930        3.7933477848       -0.6399602599
 H          0.2668039410        2.7505342773       -0.3312294878
 H          1.1500005218        4.1350539590       -0.9395808911
 C         -0.3305556554        4.6350156942        0.5477820305
 H         -1.0296090131        5.3975252069        0.2011306476
 H          0.5285147654        5.1529053939        0.9796741797
 C         -0.9756251330        3.8320061935        1.6794469178
 H         -0.3301746404        2.9875294333        1.9390488009
 H         -1.0414645205        4.4769291551        2.5602764004
 C         -2.3852357381        3.2943134932        1.4000376480
 H         -2.8044838747        2.9468088022        2.3489915039
 H         -3.0178913647        4.0984382938        1.0179748232
 H         -0.7025996144        4.8725390734       -2.2968221229
 H         -0.3360151819        3.1714423064       -2.6230980175
 H         -2.7149092242        3.3855717503       -2.5747964582
 H         -2.6892037311        4.2943618655       -1.0510155996
 O         -2.3284208095        1.1335154044       -1.6825629000
 C         -2.3829531290       -0.1591714648       -1.1789794996
 O         -2.2971989276       -1.0410759236       -2.0539337873
 H         -0.0645453074       -0.8983067377        0.6701364892
 C         -0.1525579598       -1.9029952378        0.2817960932
 C         -1.3998987877       -2.5163652604        0.2666469961
 C         -1.4948192389       -3.8114613145       -0.2217759879
 C         -0.3648119029       -4.4637348732       -0.6877646596
 C          0.8691614498       -3.8423336353       -0.6883971212
 C          0.9719518530       -2.5377760743       -0.2122941232
 N          2.1969498291       -1.8530475891       -0.2670231606
 S          2.4096480012       -0.3797453096        0.5085386762
 O          2.2256498240       -0.5223217964        1.9379413119
 O          1.6027594361        0.6176670382       -0.1469924161
 C          4.1329413555       -0.1006497674        0.1494310942
 C          5.0897236102       -0.5165827619        1.0560949791
 C          6.4287025960       -0.3238552918        0.7543518563
 C          6.7865445409        0.2770902833       -0.4431590068
 C          5.8151793686        0.6914357113       -1.3423643701
 C          4.4746364835        0.5012519858       -1.0464713443
 H          3.6834040752        0.8126154062       -1.7088711418
 H          6.0963192634        1.1615798937       -2.2709033215
 H          7.8289690361        0.4265559497       -0.6759025397
 H          7.1858604180       -0.6414668326        1.4529286321
 H          4.7638883538       -0.9674414253        1.9796831819
 H          3.0104076814       -2.4489943109       -0.2225358227
 H          1.7435009964       -4.3492072219       -1.0661773269
 H         -0.4502322712       -5.4719472921       -1.0641172358
 H         -2.4517647461       -4.3058572112       -0.2542450043
 C         -2.5621537150       -1.7174447486        0.8041156452
 H         -2.3707830504       -1.5425153487        1.8778086306
 C         -3.8984358820       -2.4389984856        0.7202129731
 C         -5.1754193470       -1.6844466561        0.5040622131
 C         -4.6522727188       -2.5931105848       -0.5655105471
 H         -5.1724438850       -3.5229998618       -0.7437705413
 H         -4.2202147158       -2.1532050139       -1.4498916606
 H         -5.1040663102       -0.6176489837        0.3465116226
 H         -6.0504184941       -1.9873286262        1.0595746986
 H         -3.9511692696       -3.2720045097        1.4149215674
 O         -2.5891447056        0.6524102237        2.3422182290
