  62
        -98.94029393
 C          1.0761649356        1.4839849524        0.5944542741
 C          2.0734076018        1.3236968227       -0.3950863899
 C          3.1371291555        0.3328307020       -0.1196464157
 C          3.0978076407       -0.3649570958        1.0296039988
 C          4.0563343437       -1.4172993096        1.5246238353
 C          3.9121599758       -2.7702242141        0.8085846864
 C          3.7359086880       -2.6824968619       -0.7047348189
 H          3.5274017151       -3.6902655676       -1.0730871396
 H          2.8673024936       -2.0620439252       -0.9314196283
 C          4.9491398882       -2.1531004926       -1.4649576546
 H          4.7261416577       -2.2343534920       -2.5317525058
 H          5.8108887758       -2.7911761407       -1.2566995673
 C          5.3345243916       -0.7021058033       -1.1712249798
 H          6.0414845375       -0.3894034949       -1.9451513764
 H          5.8592250897       -0.6172514171       -0.2234213530
 C          4.1704140447        0.2822455223       -1.2192963288
 H          4.5759682185        1.2991216964       -1.2822937605
 H          3.6150956486        0.1379859000       -2.1529083337
 H          3.0396370510       -3.2832664421        1.2203369325
 H          4.7913099742       -3.3741612739        1.0398183034
 H          3.8382317194       -1.5605043845        2.5856272158
 H          5.0755961547       -1.0490010349        1.4479578973
 O          2.0965080575       -0.1969360551        1.9435550647
 C          1.0816804490        0.7199605332        1.7625655771
 O          0.2575771691        0.7643076309        2.6997547112
 O          2.1074591426        1.9775019179       -1.4693667951
 C         -0.0531212234        2.4930341256        0.4497730336
 C         -1.0483558377        2.0038059570       -0.5752172223
 C         -0.9242701224        2.2792579163       -1.9322816346
 C         -1.8526992538        1.7870610200       -2.8318046362
 C         -2.9135992970        1.0101564249       -2.4023079826
 C         -3.0473422850        0.7288551950       -1.0474724235
 C         -2.1193461695        1.2299237638       -0.1459318892
 H         -2.2382072913        1.0154728977        0.9058530674
 N         -4.1248353195       -0.0421061717       -0.5824626547
 S         -3.8909209972       -1.1703213545        0.6281262960
 O         -5.0247096682       -2.0613820077        0.5035012125
 O         -3.7432017876       -0.5131526957        1.9007332902
 C         -2.3991707855       -2.0313776438        0.1693851541
 C         -1.2217980560       -1.8040887103        0.8502481749
 C         -0.0749104568       -2.4640680320        0.4372686028
 C         -0.1218396037       -3.3307728368       -0.6424570083
 C         -1.3150329444       -3.5513490555       -1.3141982422
 C         -2.4644364814       -2.8953420484       -0.9073673056
 H         -3.4137572679       -3.0517791116       -1.3934775721
 H         -1.3497106004       -4.2300073406       -2.1510859018
 H          0.7764702245       -3.8377704212       -0.9576503595
 H          0.8484989991       -2.2872042714        0.9652978431
 H         -1.2069514210       -1.1226733723        1.6869944273
 H         -4.7247705937       -0.4039458166       -1.3095152622
 H         -3.6372421625        0.6279791913       -3.1059683699
 H         -1.7457986383        2.0074868677       -3.8830023077
 H         -0.0857316322        2.8584205238       -2.2813468460
 H         -0.5623657236        2.5053216641        1.4234198291
 C          0.4595645268        3.8893736676        0.1591140793
 C         -0.4567864955        5.0565805934        0.3633455498
 C          0.6931457530        4.8333493728        1.2981371170
 H          1.5381512736        5.5036559664        1.2473205233
 H          0.4792698472        4.4772621994        2.2958575821
 H         -0.4036480518        5.8826391808       -0.3289609241
 H         -1.4523726711        4.8502114367        0.7272132169
 H          1.1577422052        3.9317242771       -0.6662980613
