  62
        -98.93112071
 C          2.1350191936        1.2809863645        0.0797941804
 C          2.1274757680        0.1527247522       -0.7754218357
 C          2.7845302445       -1.0667650344       -0.2556841307
 C          3.3413728122       -1.0617648320        0.9679704056
 C          4.0267406206       -2.1555098835        1.7613693359
 C          4.4935669498       -3.4405845450        1.0823165869
 C          5.6316506975       -3.2588813768        0.0789753668
 H          5.8160094327       -4.2206546994       -0.4045382034
 H          6.5363081375       -2.9812741551        0.6255358225
 C          5.3995488063       -2.1999501027       -0.9958692698
 H          6.2799341590       -2.1827651073       -1.6439915205
 H          5.3229480830       -1.2150480815       -0.5307521046
 C          4.1753880432       -2.4245237857       -1.8818220197
 H          4.2137308690       -3.4249504186       -2.3171398707
 H          4.2236098166       -1.7012740639       -2.7003635723
 C          2.8133159339       -2.2428752834       -1.1887048216
 H          2.5043546015       -3.1476897188       -0.6701642065
 H          2.0627836050       -2.0406404957       -1.9589577314
 H          3.6528411761       -3.9461916490        0.6163825228
 H          4.8570300110       -4.0969713489        1.8777600920
 H          4.8828002699       -1.6758661516        2.2465453674
 H          3.3275625260       -2.4218786575        2.5618537042
 O          3.3165733963        0.0511205161        1.7605190124
 C          2.7158546383        1.2242827868        1.3479726627
 O          2.7735584953        2.1482356631        2.1852633310
 H         -0.4199928954        0.6666217371       -0.0957156567
 C         -0.7390617674        1.5824540912        0.3795061077
 C          0.1091741977        2.6801490228        0.4052945800
 C         -0.3198245785        3.8434064234        1.0338785935
 C         -1.5761925764        3.9085364468        1.6093751584
 C         -2.4269238994        2.8196974528        1.5638006063
 C         -2.0006365634        1.6445522852        0.9528047596
 N         -2.8275271066        0.5110726466        0.9405190973
 S         -2.6720672027       -0.6138882213       -0.3081529802
 O         -1.5687979525       -1.4900717853       -0.0054090529
 O         -2.6467753943        0.0638443761       -1.5838933535
 C         -4.2093901822       -1.4968538879       -0.1147406700
 C         -4.3074218188       -2.4444257276        0.8868131602
 C         -5.5103715823       -3.1087858779        1.0652857300
 C         -6.5895992717       -2.8164534311        0.2442343222
 C         -6.4755030789       -1.8653997376       -0.7584303851
 C         -5.2753960389       -1.1960586284       -0.9411209239
 H         -5.1364624086       -0.4547417187       -1.7115467941
 H         -7.3146083525       -1.6429532664       -1.3976114912
 H         -7.5243896692       -3.3356156032        0.3849986101
 H         -5.6016122839       -3.8508730476        1.8419155609
 H         -3.4389929039       -2.6434525969        1.4930858800
 H         -3.7943564267        0.7208927546        1.1471360983
 H         -3.4086066259        2.8695000643        2.0093749494
 H         -1.8981143756        4.8172984655        2.0946679972
 H          0.3452328312        4.6931548820        1.0813146853
 C          1.4690753603        2.6087626590       -0.2437344752
 H          2.0969847547        3.3793630515        0.2346656632
 C          1.4154661212        2.9326688504       -1.7291596630
 C          0.1930539818        2.7374641232       -2.5691222204
 C          0.6434592894        4.1222748002       -2.2196235571
 H          1.0795100201        4.7331468215       -2.9955174522
 H          0.0560858348        4.6708035010       -1.4991447268
 H         -0.6940969392        2.3390903662       -2.0996225348
 H          0.3349066021        2.3775150968       -3.5768344914
 H          2.3648301514        2.7343782657       -2.2160792361
 O          1.6133152212        0.1314523961       -1.9227459553
