  62
        -98.93454845
 C         -1.8845703830       -1.4509817924       -0.4527377847
 C         -1.7227495701       -0.2186753194        0.2220779348
 C         -2.9493016924        0.4024622524        0.7619540480
 C         -4.1312429731       -0.2241803032        0.6210375815
 C         -5.5239641052        0.1491350982        1.0848209284
 C         -5.8265839192        1.5541468632        1.5990244002
 C         -5.7597605413        2.6528684494        0.5379033802
 H         -6.6059246812        2.5278709412       -0.1425996556
 H         -5.8753042738        3.6174443135        1.0369898057
 C         -4.4901604630        2.6795038039       -0.3094336811
 H         -4.4100115608        1.7500558087       -0.8768594654
 H         -4.5905275530        3.4913373230       -1.0348844250
 C         -3.1916255255        2.9041835905        0.4624082673
 H         -2.3944555272        3.0454755456       -0.2724958639
 H         -3.2677336109        3.8192937999        1.0529128450
 C         -2.7708664380        1.7538929129        1.3923734022
 H         -1.7014190403        1.8566073055        1.5999547710
 H         -3.2912306087        1.8065696390        2.3454196937
 H         -5.1824122062        1.7935303118        2.4401258623
 H         -6.8499834001        1.5303817124        1.9835169305
 H         -6.1881303040       -0.0747625723        0.2436347995
 H         -5.7756856374       -0.5694213747        1.8728296692
 O         -4.2282404445       -1.4422177411        0.0092651583
 C         -3.1277869382       -2.0796069642       -0.5350652120
 O         -3.3800135303       -3.1867628706       -1.0506662370
 H          1.9040554140       -1.3524941688       -1.4924800345
 C          1.7301075455       -1.7223178128       -0.4939500232
 C          0.4703999237       -2.1679543908       -0.1255025248
 C          0.2851072986       -2.6237420236        1.1777586976
 C          1.3210130015       -2.6071122776        2.0908840103
 C          2.5760534112       -2.1543318458        1.7211018238
 C          2.7759269608       -1.7119141101        0.4219214885
 N          4.0602389369       -1.2661742458        0.0406575053
 S          4.6420148329        0.1548207897        0.7102019592
 O          6.0231299666        0.2472140442        0.2921282648
 O          4.4033165845        0.1346210931        2.1301457272
 C          3.7065923803        1.4602792962       -0.0682872766
 C          4.3343720468        2.2796477846       -0.9868813482
 C          3.5959241148        3.2636322176       -1.6235581560
 C          2.2448638074        3.4033476640       -1.3420639922
 C          1.6303521176        2.5694507882       -0.4214553105
 C          2.3642203873        1.5884026634        0.2259418873
 H          1.8917312202        0.9263244005        0.9331192060
 H          0.5772529298        2.6512544133       -0.2052128382
 H          1.6671821035        4.1642092291       -1.8433654660
 H          4.0728030013        3.9140182910       -2.3392963094
 H          5.3848424920        2.1305647159       -1.1784585810
 H          4.1893700582       -1.2302376014       -0.9612920390
 H          3.3921214793       -2.1189779911        2.4239123791
 H          1.1533536232       -2.9523859576        3.1002630490
 H         -0.6948488284       -2.9769888419        1.4711928002
 C         -0.7071074532       -2.1849609460       -1.0702702175
 H         -1.0439209648       -3.2307295270       -1.1650868550
 C         -0.3573260836       -1.7106818194       -2.4743780346
 C         -1.3681362125       -1.0161112432       -3.3360437194
 C         -0.1938965000       -0.2566760777       -2.7998291643
 H          0.5858541485        0.0333984587       -3.4892797644
 H         -0.3562978820        0.4499480534       -2.0019201217
 H         -1.3922429069       -1.2564679592       -4.3884928660
 H         -2.3430907959       -0.8239168850       -2.9121564963
 H          0.3048948872       -2.4040555780       -2.9841373733
 O         -0.6140055761        0.3508184391        0.3806365608
