  62
        -98.94459614
 C         -2.6096326335       -0.9951310040        0.2165175609
 C         -2.5228242257       -0.1009976544       -0.8782865208
 C         -3.0007583554        1.2675726441       -0.6316838108
 C         -3.5231096175        1.5861280297        0.5654307529
 C         -3.9989329074        2.9522823607        0.9632361767
 C         -2.8788135064        3.7596456889        1.6336312429
 C         -1.5592234900        3.7574367409        0.8606861255
 H         -0.8614603797        4.3955459414        1.4076817312
 H         -1.1330546448        2.7507154458        0.8636407077
 C         -1.6673414440        4.2504282021       -0.5888202125
 H         -2.5873483923        4.8218374403       -0.7207656818
 H         -0.8318289674        4.9241756100       -0.7901969688
 C         -1.6020834290        3.1406735166       -1.6402016429
 H         -1.4411859718        3.6060672919       -2.6169326649
 H         -0.7363142016        2.5018239917       -1.4382165613
 C         -2.8527161663        2.2580029635       -1.7516556749
 H         -2.7639805471        1.6672142720       -2.6680721800
 H         -3.7408055715        2.8879321829       -1.8339701625
 H         -3.2240033518        4.7875256350        1.7595983485
 H         -2.6932521075        3.3385390589        2.6242821493
 H         -4.8221957120        2.8358707045        1.6701450362
 H         -4.3610347168        3.4762291269        0.0809466322
 O         -3.6406046631        0.6893177034        1.5766707471
 C         -3.1583026404       -0.5996480532        1.4414099963
 O         -3.2867460564       -1.3008592000        2.4646882872
 O         -2.0757348470       -0.4035254211       -2.0185761975
 C         -2.0616306114       -2.4166113136        0.1812226111
 C         -0.5638690798       -2.3433620513        0.3573117578
 C          0.0405404295       -2.7382543411        1.5453488024
 C          1.4016426008       -2.5717132918        1.7342617353
 C          2.1835836035       -1.9869749968        0.7531201819
 C          1.5860193755       -1.5860387025       -0.4336033296
 C          0.2313693741       -1.7888833553       -0.6357007455
 H         -0.2232262537       -1.4529211036       -1.5556682128
 N          2.3617192426       -0.9123686727       -1.4108781298
 S          2.6837847631        0.6856267588       -0.9681684370
 O          1.6296709031        1.2281670487       -0.1403838007
 O          2.9621277541        1.3891424460       -2.2015124113
 C          4.1868970402        0.5340018099       -0.0270274760
 C          4.1887810275        0.8212571510        1.3233674905
 C          5.3685019831        0.6750999051        2.0369557706
 C          6.5176836654        0.2457547635        1.3907416216
 C          6.4991502856       -0.0373425490        0.0328440748
 C          5.3235580858        0.1073526964       -0.6860888160
 H          5.2631628208       -0.0965487426       -1.7420746599
 H          7.3948609687       -0.3708923296       -0.4658097235
 H          7.4332590321        0.1310410093        1.9492231679
 H          5.3843790423        0.8941882816        3.0925379350
 H          3.2689267646        1.1457549288        1.7833596419
 H          1.9013109452       -0.8984623854       -2.3120976500
 H          3.2401821347       -1.8328551166        0.9014615971
 H          1.8555744274       -2.8852702359        2.6619271666
 H         -0.5718915768       -3.1536620242        2.3327443311
 H         -2.4825365420       -2.9205982953        1.0611062613
 C         -2.4637566386       -3.1940213856       -1.0551547217
 C         -2.3959111851       -4.6903401719       -1.0217572374
 C         -3.7260354165       -4.0000472882       -1.0314442415
 H         -4.3257395655       -4.0422256167       -1.9281957293
 H         -4.3052660016       -3.9938758248       -0.1194635835
 H         -2.0803216543       -5.2110799213       -1.9126691878
 H         -2.0741074280       -5.1550114861       -0.1020773088
 H         -2.2133187203       -2.6971955743       -1.9827317736
