  62
        -98.93929019
 C          2.1046931446        0.9978039639        0.0964105566
 C          2.7697730664        0.2744750136        1.1118409435
 C          3.4733632045       -0.9502177471        0.6940097286
 C          3.4068208632       -1.3326593298       -0.5932559061
 C          4.0841245138       -2.5132370716       -1.2324950839
 C          5.4377805345       -2.1014561705       -1.8362134289
 C          6.6192995169       -2.1600650545       -0.8687080250
 H          6.8589185246       -3.2045681736       -0.6589040703
 H          7.4795707179       -1.7228337111       -1.3805375949
 C          6.4144305819       -1.4288539494        0.4606147853
 H          7.3992437767       -1.2216639637        0.8835571644
 H          5.9307776701       -0.4670836628        0.2807391356
 C          5.5993316170       -2.2417737332        1.4774208049
 H          6.1372386857       -2.2766540647        2.4270353366
 H          5.5205386911       -3.2714763337        1.1291384427
 C          4.1977283884       -1.6931093274        1.7838538875
 H          3.5603819049       -2.5147446707        2.1287628850
 H          4.2590324695       -0.9792255174        2.6113838611
 H          5.3329693712       -1.0873352818       -2.2301737443
 H          5.6584803425       -2.7581472226       -2.6800810330
 H          3.4284940292       -2.8469362642       -2.0397455329
 H          4.2007556692       -3.3240559001       -0.5194158999
 O          2.7199205398       -0.6274689092       -1.5337858475
 C          2.0537391918        0.5458259720       -1.2224182111
 O          1.4714644154        1.0780994730       -2.1853298457
 O          2.7758410632        0.6351379100        2.3213075390
 C          1.3583179469        2.2687122356        0.4644387276
 C         -0.1156045171        2.0596865725        0.2172272858
 C         -0.8924894344        2.8838673149       -0.5846203685
 C         -2.2297641938        2.5938293345       -0.7972080987
 C         -2.8203952620        1.4886938726       -0.2131553171
 C         -2.0538272988        0.6624249948        0.5988636380
 C         -0.7171838822        0.9558794355        0.8110155074
 H         -0.1182908476        0.3064320890        1.4387484508
 N         -2.6487323390       -0.4636679962        1.2038666958
 S         -3.3324758797       -1.5976999533        0.1650894015
 O         -3.3096255881       -2.8447992115        0.8993945223
 O         -2.6788005339       -1.5987485471       -1.1238672079
 C         -5.0193175539       -1.0531444142        0.0002428695
 C         -5.5294667763       -0.7617506060       -1.2495270954
 C         -6.8472188909       -0.3436382648       -1.3536283337
 C         -7.6261782327       -0.2258131419       -0.2126633696
 C         -7.0987807116       -0.5244022851        1.0350638100
 C         -5.7828197725       -0.9438549349        1.1462053910
 H         -5.3344221241       -1.1898112290        2.0941923291
 H         -7.7077867651       -0.4315166630        1.9197672610
 H         -8.6506770477        0.1006347430       -0.2967693426
 H         -7.2585847436       -0.1110991366       -2.3227151776
 H         -4.8829717831       -0.8623107826       -2.1069095770
 H         -2.0337584232       -0.9310298593        1.8557270604
 H         -3.8594422506        1.2574912678       -0.3823055517
 H         -2.8198427672        3.2380028189       -1.4309854117
 H         -0.4488023054        3.7449800675       -1.0561121350
 H          1.5092207051        2.3927666428        1.5469629891
 C          1.9398232915        3.4683811032       -0.2510506394
 C          1.7821366974        4.8387817163        0.3349165635
 C          3.1215866586        4.1675755836        0.3487851923
 H          3.8922037048        4.5354025226       -0.3118846264
 H          3.4971612399        3.7906147543        1.2889715394
 H          1.6347349020        5.6721617531       -0.3349782714
 H          1.2482372562        4.9231317957        1.2691972841
 H          1.9156655939        3.3636763940       -1.3296914555
