  62
        -98.94805618
 C         -1.2688748114        1.0383571125        0.0466603335
 C         -1.6303017808       -0.0251126524       -0.8139367772
 C         -2.6726308115       -0.9276288780       -0.3155310508
 C         -3.1684101951       -0.7526206637        0.9227628141
 C         -4.2133315775       -1.6082692362        1.5863301262
 C         -5.6553620927       -1.2347730417        1.2155608726
 C         -6.0841844477       -1.6185538202       -0.2012708105
 H         -5.8632862120       -2.6726205146       -0.3724812173
 H         -7.1684446497       -1.5004773657       -0.2502969197
 C         -5.4445788162       -0.7695308843       -1.3086416302
 H         -5.0320526041        0.1439422573       -0.8742888531
 H         -6.2121366416       -0.4665066898       -2.0242091757
 C         -4.3454982845       -1.4812894417       -2.0974832722
 H         -3.9391411446       -0.7787010938       -2.8293403203
 H         -4.7728645867       -2.3259335825       -2.6423397721
 C         -3.1832527016       -1.9940291146       -1.2366859474
 H         -3.4917576709       -2.8714606877       -0.6681522538
 H         -2.3625024634       -2.2819278230       -1.8987190705
 H         -5.7839094577       -0.1592067246        1.3570678256
 H         -6.3145827117       -1.7441763447        1.9222310045
 H         -4.0869749723       -1.4721419544        2.6627334065
 H         -4.0324062662       -2.6570553073        1.3478063769
 O         -2.7467033719        0.2428993594        1.7473428162
 C         -1.7966664875        1.1656181341        1.3310907739
 O         -1.5129558121        2.0283248547        2.1841292453
 O         -1.1018587149       -0.2124523344       -1.9435726988
 C         -0.2129080897        2.0258330309       -0.4109182150
 C          1.0254370071        1.9214533510        0.4460121596
 C          1.8016962641        3.0167580702        0.8043757723
 C          2.9455070674        2.8437177446        1.5647075559
 C          3.3561883985        1.5829025379        1.9583065011
 C          2.5898114989        0.4802600450        1.5987086227
 C          1.4338385079        0.6605323755        0.8573668599
 H          0.8317712390       -0.2009983901        0.6139183492
 N          2.9650821031       -0.8215373256        1.9635008424
 S          2.6916990498       -2.0793484545        0.8946995766
 O          1.2972027858       -2.4455147650        0.8900934844
 O          3.6108145931       -3.1127983517        1.3235217788
 C          3.2016610175       -1.4432713822       -0.6925569103
 C          2.2771268875       -1.1261341777       -1.6659470275
 C          2.7247075846       -0.5809338648       -2.8598174430
 C          4.0783523820       -0.3642356973       -3.0606259142
 C          4.9965407022       -0.6971400003       -2.0757378121
 C          4.5558690157       -1.2385503033       -0.8800948056
 H          5.2381817994       -1.5211781553       -0.0949424514
 H          6.0500114450       -0.5334660886       -2.2354991305
 H          4.4184642381        0.0638569808       -3.9903745054
 H          2.0020748823       -0.3253328853       -3.6185310174
 H          1.2258454340       -1.2955990461       -1.4920030037
 H          3.8646403034       -0.8973099399        2.4147603713
 H          4.2521126503        1.4507149348        2.5449832843
 H          3.5327961872        3.7041589492        1.8469253732
 H          1.5068682745        4.0062011823        0.4956373422
 H          0.0623643300        1.7041705972       -1.4276857236
 C         -0.7819022502        3.4277798005       -0.4820919678
 C         -0.2909459076        4.3941997104       -1.5172198083
 C         -1.6572361033        3.7924761502       -1.6426862234
 H         -2.5189373167        4.4175709785       -1.4626674912
 H         -1.8178245011        3.0369492997       -2.3981295313
 H         -0.2162036469        5.4382365704       -1.2527808998
 H          0.4749418301        4.0532320674       -2.1971795830
 H         -1.0578441745        3.8132000225        0.4928332060
