  62
        -98.94084633
 C          2.6579924081       -1.1725820436        0.3855790149
 C          2.1720389061       -0.0061941357        1.0249864927
 C          3.0725128037        1.1566031412        1.0060922426
 C          4.2759421104        1.0536164675        0.4140660926
 C          5.2645984135        2.1739137986        0.2748807009
 C          5.0582164997        2.9338492119       -1.0428141802
 C          3.6066328489        3.3374733629       -1.3031057252
 H          3.5870420598        3.8938359548       -2.2428590456
 H          3.0044922849        2.4377536655       -1.4530657203
 C          2.9749931206        4.1886009219       -0.1926762968
 H          2.4303217488        5.0153572412       -0.6534804556
 H          3.7571192513        4.6226143279        0.4314480116
 C          1.9776938240        3.4391888913        0.6931257402
 H          1.2420328472        2.9268672212        0.0663307934
 H          1.4366604998        4.1765369099        1.2924659955
 C          2.5848747235        2.4172458730        1.6628593436
 H          3.3847671673        2.8870874506        2.2386520458
 H          1.7964173157        2.1087694934        2.3554297184
 H          5.3877445529        2.2958405983       -1.8660744419
 H          5.6881258912        3.8250955262       -1.0301283999
 H          6.2695492131        1.7487754066        0.2847755223
 H          5.1587948160        2.8527935064        1.1186388146
 O          4.7134460889       -0.0872213821       -0.1771523296
 C          3.9125460335       -1.2144764918       -0.2273124439
 O          4.4233411902       -2.1799880749       -0.8295202518
 O          1.0507579298        0.0713519967        1.5930134412
 C          1.8059924914       -2.4289584335        0.2865900109
 C          0.6374114848       -2.1155635856       -0.6158743778
 C          0.8344949443       -2.1041275434       -1.9941809562
 C         -0.1882952930       -1.7413011721       -2.8499169248
 C         -1.4264270225       -1.3746499784       -2.3504887305
 C         -1.6289083751       -1.3740475866       -0.9775531496
 C         -0.6047034225       -1.7556228566       -0.1194839234
 H         -0.7699188090       -1.7349558278        0.9458481201
 N         -2.8829551390       -1.0009708285       -0.4533777182
 S         -3.5800175870        0.4033689288       -1.0859844698
 O         -4.2093450055        0.0713455152       -2.3405569178
 O         -2.6083243664        1.4733113753       -1.1345303275
 C         -4.8258289950        0.7381612561        0.1427238331
 C         -6.0676769797        0.1457362327        0.0156811311
 C         -7.0233569551        0.3793317385        0.9916716805
 C         -6.7221259384        1.1945955623        2.0725035734
 C         -5.4711625344        1.7827025775        2.1857743143
 C         -4.5101903359        1.5524146885        1.2138494076
 H         -3.5268095467        1.9937766936        1.2584764203
 H         -5.2399946924        2.4177695126        3.0258873322
 H         -7.4671740048        1.3754794434        2.8310878256
 H         -7.9976246889       -0.0741912166        0.9069200821
 H         -6.2570007621       -0.4739014260       -0.8451266738
 H         -2.8509103532       -0.9418295204        0.5562965757
 H         -2.2272420535       -1.0698715267       -3.0047556201
 H         -0.0210122480       -1.7364292964       -3.9168438111
 H          1.8087480326       -2.3674691691       -2.3835554057
 H          2.4319220884       -3.1788440873       -0.2148864697
 C          1.4123106357       -2.9556722998        1.6503623172
 C          0.8672272487       -4.3463889651        1.7688298694
 C          2.2389676610       -4.0323308616        2.2836497651
 H          2.3951209489       -3.9996299212        3.3515013442
 H          3.0909846261       -4.3986700717        1.7297272072
 H          0.0807665660       -4.5342520832        2.4835825951
 H          0.7862864782       -4.9267858099        0.8622091642
 H          1.0105843722       -2.1935036419        2.3060384521
