  62
        -98.93891851
 C          1.5354051395        1.3837671332       -0.3438972668
 C          1.4515693653       -0.0110567150       -0.5594373367
 C          2.4569575114       -0.8478520816        0.1237954413
 C          3.3674826511       -0.2755854770        0.9311122432
 C          4.4584978551       -0.8779946940        1.7920193940
 C          4.9295109489       -2.3132022723        1.5695710674
 C          5.6306480274       -2.5595482052        0.2345534007
 H          6.5845582839       -2.0262305468        0.2386500230
 H          5.8464946503       -3.6274170990        0.1567408370
 C          4.8585036594       -2.1170058087       -1.0057708892
 H          4.7434447470       -1.0312405152       -0.9976641247
 H          5.4611982393       -2.3704872927       -1.8820747190
 C          3.4843765190       -2.7600859472       -1.1844661342
 H          3.1265522423       -2.4950588381       -2.1826978352
 H          3.5782530366       -3.8467520981       -1.1396239671
 C          2.4079448097       -2.3182288495       -0.1765357347
 H          1.4272273066       -2.5108502370       -0.6205861945
 H          2.4592555869       -2.8948088764        0.7444129330
 H          4.1018269401       -3.0048690019        1.6973833010
 H          5.6479443708       -2.5296459204        2.3651324832
 H          5.3148822550       -0.2023152795        1.6993919546
 H          4.1041693508       -0.7875115163        2.8252397875
 O          3.3924339266        1.0743432313        1.1356707793
 C          2.4984053521        1.9230427881        0.5122511663
 O          2.6659953736        3.1288065903        0.7881702506
 H         -1.2174574657        0.5199794681       -0.1996878219
 C         -1.4415363614        1.4826697339        0.2271290446
 C         -0.6250707337        2.5678749339       -0.0623992015
 C         -0.9213292343        3.8020775636        0.5027204697
 C         -2.0034146389        3.9425368426        1.3531848004
 C         -2.7934658408        2.8528345079        1.6670944540
 C         -2.5063670863        1.6114874782        1.1061662176
 N         -3.3045553588        0.5035128161        1.4131641060
 S         -2.7158642239       -1.0643013777        1.5127743810
 O         -3.5214037952       -1.6743498587        2.5528336119
 O         -1.2884561195       -1.0925266896        1.7179544934
 C         -3.1935630743       -1.7786373048       -0.0469632641
 C         -2.2727631280       -1.9837211125       -1.0529088708
 C         -2.7066524755       -2.5268448193       -2.2536604259
 C         -4.0419736272       -2.8528774675       -2.4275873663
 C         -4.9551414926       -2.6417500646       -1.4048961098
 C         -4.5291914270       -2.1001694522       -0.2041433559
 H         -5.2010816356       -1.9327699454        0.6212181293
 H         -5.9936715187       -2.8972753945       -1.5407673545
 H         -4.3716870127       -3.2743254885       -3.3642189427
 H         -1.9920993405       -2.6863744338       -3.0455469446
 H         -1.2390036799       -1.7126345026       -0.9024498968
 H         -4.0089592961        0.6743084503        2.1153528975
 H         -3.6253596418        2.9556721887        2.3475056378
 H         -2.2239783614        4.9054831129        1.7885412527
 H         -0.2837719362        4.6476183028        0.2899446737
 C          0.5826194824        2.4012085065       -0.9549439749
 H          1.1289031484        3.3549165587       -0.9519503744
 C          0.1698438312        2.0939545964       -2.3801120093
 C         -0.2928842464        3.2175702758       -3.2563650452
 C          1.0319682143        2.5645931384       -3.5108128721
 H          1.1394438445        1.9270897060       -4.3753042437
 H          1.9282158541        3.1141913038       -3.2608998301
 H         -1.0994506071        3.0306307655       -3.9482426122
 H         -0.2941527189        4.2124771516       -2.8372383393
 H         -0.3154531137        1.1343020662       -2.4925564437
 O          0.5888743639       -0.5657789700       -1.2898015553
