  62
        -98.93964521
 C          2.6565038386        0.6434466374        0.6145490070
 C          2.9656774633        0.0416631627       -0.6295250676
 C          3.3552765104       -1.3749234488       -0.5738970953
 C          3.4049708498       -2.0003654067        0.6163510043
 C          3.7187588251       -3.4553777013        0.8081779177
 C          2.4389562573       -4.3034797626        0.7905887238
 C          1.5156764950       -4.0054589296       -0.3911580556
 H          0.6612416342       -4.6813255702       -0.3148689542
 H          1.1297442996       -2.9875756156       -0.2965431136
 C          2.1748332170       -4.1682609540       -1.7679480673
 H          3.0814081082       -4.7675185728       -1.6761540030
 H          1.4905550819       -4.7131097405       -2.4215235363
 C          2.5080685595       -2.8512797962       -2.4716920789
 H          2.7638879312       -3.0761005709       -3.5105091984
 H          1.6248728516       -2.2069833785       -2.4851026691
 C          3.6751080063       -2.0537626232       -1.8757908776
 H          4.5486856157       -2.7002084486       -1.7707421888
 H          3.9215925116       -1.2522268001       -2.5782280622
 H          2.7235393071       -5.3569960394        0.7751876166
 H          1.8860630212       -4.1141103361        1.7136247771
 H          4.3953777537       -3.7826832962        0.0214278083
 H          4.2121338287       -3.5772799348        1.7738868518
 O          3.1139967631       -1.3838241037        1.7911714477
 C          2.7153086680       -0.0572890399        1.8181728767
 O          2.4386366044        0.3744339232        2.9567821981
 O          2.9148031068        0.6505582374       -1.7292031701
 C          2.2039641936        2.0917275745        0.6599592316
 C          0.9434909295        2.2563811144       -0.1562916521
 C          0.7601593319        3.2674667034       -1.0890584104
 C         -0.4240495633        3.3549262053       -1.8014664742
 C         -1.4454195719        2.4451912002       -1.6023238534
 C         -1.2793091792        1.4377922905       -0.6596722004
 C         -0.0956673768        1.3584762385        0.0582851298
 H          0.0347986794        0.5755569207        0.7967106605
 N         -2.3011254354        0.4862823084       -0.4539223660
 S         -3.8648135877        1.0767885460       -0.1988137149
 O         -4.3839698738        1.5563501667       -1.4542240668
 O         -3.8683345639        2.0287536936        0.8909009100
 C         -4.7146208550       -0.4155295096        0.2729236035
 C         -5.0364985742       -0.6300821378        1.5991390079
 C         -5.6844190076       -1.8044715791        1.9495813952
 C         -5.9935349185       -2.7397059352        0.9736628720
 C         -5.6626330828       -2.5100391293       -0.3538153592
 C         -5.0173143881       -1.3372172543       -0.7114252949
 H         -4.7494620773       -1.1122423800       -1.7304301925
 H         -5.9065133999       -3.2392275087       -1.1094646832
 H         -6.4985510621       -3.6520560174        1.2492179109
 H         -5.9456837304       -1.9839599329        2.9800859593
 H         -4.7819380254        0.1275822686        2.3230531503
 H         -2.0605522371       -0.1534306013        0.2922574258
 H         -2.3695544556        2.5074155051       -2.1530934658
 H         -0.5521476142        4.1430398932       -2.5282088282
 H          1.5446909496        3.9850407020       -1.2639885697
 H          1.9552928976        2.3013381200        1.7110852685
 C          3.3301553269        3.0099919619        0.2346810150
 C          3.4036801500        4.4092985469        0.7651782100
 C          4.3800753590        3.3759595839        1.2386684102
 H          5.4062819030        3.4446178055        0.9104452406
 H          4.2672732915        2.9830523260        2.2389502288
 H          3.7630705546        5.1905570111        0.1125063296
 H          2.6303292157        4.7265158989        1.4485803803
 H          3.6531841754        2.8283773162       -0.7837481632
