  62
        -98.92991538
 C          2.3088025320       -0.0054988668        0.3113460400
 C          3.3252705225        0.8515964147       -0.1745890042
 C          4.5894157142        0.2009052937       -0.5784721817
 C          4.6986037846       -1.1355586731       -0.5027314463
 C          5.9027127667       -1.9784929079       -0.8201066946
 C          6.7314247540       -2.2406381871        0.4488077257
 C          7.7706689205       -1.1677833505        0.7721366216
 H          8.1880969898       -1.4051253331        1.7534116128
 H          8.5847712480       -1.2273169503        0.0467634656
 C          7.2421663687        0.2688663887        0.7968243821
 H          7.9395834787        0.8715861922        1.3819123092
 H          6.2800355989        0.2982189808        1.3116356183
 C          7.1059360076        0.8862810858       -0.6029816178
 H          7.6085786689        1.8555153126       -0.6201126978
 H          7.6277365153        0.2549244460       -1.3219114830
 C          5.6650242595        1.1272914958       -1.0777383280
 H          5.3391264586        2.1233708722       -0.7620431420
 H          5.6454513390        1.1259419508       -2.1725729862
 H          6.0362887256       -2.3455630301        1.2859651182
 H          7.2526980793       -3.1934831633        0.3366411321
 H          6.5053060213       -1.5142617779       -1.5950033079
 H          5.5239969283       -2.9329337675       -1.1915810992
 O          3.6849859866       -1.9272023505       -0.0529815360
 C          2.4847040791       -1.3903939459        0.3673065835
 O          1.6596036478       -2.2361229968        0.7707313710
 O          3.2099253769        2.0996748783       -0.2735052607
 C          0.9573576503        0.4923565838        0.7948516125
 C         -0.0333963261        0.5948631314       -0.3359152487
 C          0.2874169092        1.2302583314       -1.5316330412
 C         -0.6515613548        1.3344265648       -2.5415373432
 C         -1.9280644530        0.8271037746       -2.3739786338
 C         -2.2555334933        0.1836829558       -1.1862001500
 C         -1.3044395737        0.0622484633       -0.1825734527
 H         -1.5681836167       -0.4544375870        0.7286929335
 N         -3.5351689969       -0.3574555703       -0.9886423609
 S         -4.1833705947       -0.3044033791        0.5704785881
 O         -3.9029733101        0.9773019578        1.1765523066
 O         -3.7380524100       -1.4655988681        1.2992375369
 C         -5.9218779087       -0.4541626297        0.2057409997
 C         -6.4325549390       -1.7073925471       -0.0764223136
 C         -7.7770975453       -1.8271567179       -0.3897001866
 C         -8.5837105753       -0.6988094128       -0.4159481265
 C         -8.0571878228        0.5515520169       -0.1287730423
 C         -6.7127399659        0.6790009138        0.1839566697
 H         -6.2610498920        1.6287562147        0.4214267560
 H         -8.6874128275        1.4260491646       -0.1467340130
 H         -9.6300754785       -0.7953814696       -0.6589495707
 H         -8.1905264616       -2.7979847253       -0.6105547498
 H         -5.7696694610       -2.5560041614       -0.0335682906
 H         -4.2025242110       -0.0627097772       -1.6883294427
 H         -2.6629873102        0.9210958600       -3.1589670925
 H         -0.3904906118        1.8293291622       -3.4649063716
 H          1.2737498495        1.6510317557       -1.6542326864
 H          0.5889624813       -0.2920283457        1.4768370411
 C          1.0434640267        1.7796239748        1.6051530838
 C          0.5560356344        3.1058621850        1.1139292688
 C         -0.2025369837        2.3835717787        2.1840304443
 H         -0.1685517241        2.7664934227        3.1931403046
 H         -1.1503159884        1.9364031464        1.9174895817
 H          1.1322907656        3.9784375822        1.3808616444
 H          0.1218009818        3.1569767145        0.1282158163
 H          1.9271571828        1.7983747889        2.2355436481
