  62
        -98.93807165
 C          1.3313789768        1.6282693566        0.1861617804
 C          2.3423026115        1.1122126909        1.0324097044
 C          3.1349242354       -0.0149200294        0.5131509463
 C          2.8431949583       -0.5228986608       -0.6988170790
 C          3.5154387537       -1.6180521390       -1.4996062775
 C          4.4284232166       -2.6359284943       -0.8199176224
 C          3.7346675258       -3.5495994693        0.1890301895
 H          3.0509430092       -4.2113120591       -0.3488256979
 H          4.4964053255       -4.1752878047        0.6595637835
 C          2.9354993728       -2.8397393173        1.2795361327
 H          2.0901841677       -2.3111336139        0.8334098893
 H          2.5225918996       -3.6046335463        1.9432001931
 C          3.7333882120       -1.8602913850        2.1395568506
 H          4.6135069837       -2.3608580900        2.5477459170
 H          3.0973285084       -1.5681526556        2.9797259487
 C          4.1846744469       -0.5686141825        1.4324271809
 H          5.1220756067       -0.7139110610        0.9003807386
 H          4.3579880357        0.1922497303        2.1990565393
 H          5.2740792151       -2.1371074963       -0.3556775774
 H          4.8330229345       -3.2689495815       -1.6144127607
 H          2.7072110213       -2.1496972849       -2.0091802802
 H          4.0917124911       -1.1077453849       -2.2794390811
 O          1.8301768544       -0.0219126936       -1.4602874971
 C          1.0370475959        1.0372548917       -1.0435044909
 O          0.1354599618        1.3347277575       -1.8450184978
 O          2.5763710071        1.5745284345        2.1822252728
 C          0.4817581372        2.7727159074        0.7109121525
 C         -0.9740337056        2.4159851577        0.5515571207
 C         -1.8727552369        3.1368721097       -0.2217088741
 C         -3.1816269168        2.7059250265       -0.3585215309
 C         -3.6222735270        1.5561133257        0.2704216124
 C         -2.7305567332        0.8301542558        1.0498824538
 C         -1.4233941682        1.2653603991        1.1892149270
 H         -0.7275387681        0.6924165984        1.7909040455
 N         -3.1629585328       -0.3529314260        1.6891787288
 S         -3.6668858525       -1.5972826745        0.6866694126
 O         -4.9027777333       -1.2144447300        0.0534639796
 O         -3.7187601258       -2.7686443319        1.5327537102
 C         -2.3821708228       -1.7811998246       -0.5354295254
 C         -2.4543602697       -1.0580425824       -1.7085135941
 C         -1.4356928769       -1.1876765134       -2.6379518555
 C         -0.3696062114       -2.0341646456       -2.3796343397
 C         -0.3072331611       -2.7477066391       -1.1928007107
 C         -1.3195928101       -2.6173679854       -0.2565324073
 H         -1.3122673938       -3.1619288415        0.6745775397
 H          0.5261702837       -3.4026281586       -0.9911168137
 H          0.4196291197       -2.1285224648       -3.1089734155
 H         -1.4691920468       -0.6190638076       -3.5525024194
 H         -3.3009114627       -0.4129775650       -1.8771603826
 H         -2.4834765472       -0.7152718425        2.3437533977
 H         -4.6325497173        1.1972946330        0.1567897125
 H         -3.8676777357        3.2713470027       -0.9708840328
 H         -1.5422467732        4.0209569634       -0.7413748753
 H          0.7068315001        2.8059660016        1.7903132258
 C          0.8410371631        4.1416899101        0.1561368175
 C          2.2421261759        4.4489219283       -0.2787673342
 C          1.1421179317        4.3753399987       -1.2927247919
 H          0.8007358678        5.2965552533       -1.7421310291
 H          1.1050752803        3.5260851367       -1.9558772070
 H          2.6565289070        5.4153972447       -0.0338319929
 H          2.9622655207        3.6440992930       -0.2464705789
 H          0.3163069531        4.9368132930        0.6773532469
