  62
        -98.94529717
 C          2.4985432463        1.1523452401       -0.0179923549
 C          3.1027156449        0.2712519236        0.9100795139
 C          3.6660610350       -0.9655965802        0.3547905211
 C          3.5696089672       -1.1953192832       -0.9676485201
 C          4.0401623113       -2.4424537003       -1.6572182309
 C          2.9159560110       -3.4846165451       -1.7403306407
 C          2.2023970701       -3.7317083234       -0.4108166543
 H          1.4513472642       -4.5062564951       -0.5829096769
 H          1.6581304314       -2.8275438306       -0.1246608675
 C          3.1276863675       -4.1592143980        0.7375305171
 H          4.0741170177       -4.5205080502        0.3338695279
 H          2.6612716333       -4.9916425694        1.2686055752
 C          3.4023429987       -3.0678720963        1.7738743243
 H          3.8757819328       -3.5348750424        2.6415648193
 H          2.4543942146       -2.6392245974        2.1105761981
 C          4.3149230196       -1.9235571482        1.3140868263
 H          5.2327329023       -2.3337208837        0.8888737833
 H          4.5772108177       -1.3332973262        2.1969749808
 H          3.3386538059       -4.4216455487       -2.1073256379
 H          2.1733799647       -3.1385543561       -2.4634005590
 H          4.8913692682       -2.8524396103       -1.1173103332
 H          4.3535641729       -2.1790148638       -2.6686733557
 O          2.9781472281       -0.3291644064       -1.8282104269
 C          2.4036319888        0.8508610143       -1.3772119974
 O          1.8622959811        1.5290103682       -2.2695767298
 O          3.1593674940        0.5040254319        2.1489820297
 C          1.8473583628        2.4241634060        0.5010105881
 C          0.3547845906        2.2935132316        0.3205130646
 C         -0.4197032462        3.1650810697       -0.4316975489
 C         -1.7743035816        2.9294099016       -0.5988620323
 C         -2.3830984741        1.8307510787       -0.0208028252
 C         -1.6180826049        0.9577801745        0.7424201908
 C         -0.2656537401        1.1985491642        0.9118002919
 H          0.3316850747        0.5125809572        1.5009546012
 N         -2.2301994834       -0.1709876967        1.3304966542
 S         -2.8483048987       -1.2998404941        0.2426831746
 O         -2.8604098385       -2.5555379473        0.9620851902
 O         -2.1212973602       -1.2816785595       -1.0066624744
 C         -4.5238338269       -0.7561306415       -0.0102909364
 C         -5.3633096082       -0.7046011879        1.0855396745
 C         -6.6697181940       -0.2786452667        0.9071215317
 C         -7.1122181654        0.0833589095       -0.3567574114
 C         -6.2576406378        0.0226874221       -1.4469930583
 C         -4.9487198351       -0.4008968032       -1.2752188251
 H         -4.2451241078       -0.4579022054       -2.0905660460
 H         -6.6030807514        0.3045109768       -2.4286840936
 H         -8.1293160846        0.4151918004       -0.4932274857
 H         -7.3373354588       -0.2298214097        1.7521500348
 H         -4.9793472672       -0.9997122927        2.0476640887
 H         -1.6244507914       -0.6442268260        1.9872738898
 H         -3.4356174633        1.6414289816       -0.1556952255
 H         -2.3632234835        3.6104471938       -1.1940092731
 H          0.0392940858        4.0191506459       -0.9013359949
 H          2.0607034400        2.4403121408        1.5799058770
 C          2.4447950596        3.6596659636       -0.1339988708
 C          2.3419932040        4.9800605720        0.5676350162
 C          3.6622641730        4.2766717128        0.4841845790
 H          4.4228496558        4.6785208688       -0.1681370965
 H          4.0549371226        3.8145136102        1.3782266209
 H          2.1975785187        5.8696649848       -0.0261496446
 H          1.8377000672        4.9993897076        1.5218159989
 H          2.3869711684        3.6461709761       -1.2159277277
