  62
        -98.93488031
 C         -2.3093936733       -1.1343854586       -0.0295663817
 C         -2.0618748433        0.1104790068       -0.6528608292
 C         -2.7355920906        1.2876146649       -0.0714607593
 C         -3.5129150111        1.1437078015        1.0169742163
 C         -4.2683047895        2.1593272852        1.8487058329
 C         -4.5184307135        3.5711852379        1.3246420471
 C         -5.4580423838        3.6506653756        0.1220170308
 H         -5.4848156431        4.6870784962       -0.2214021698
 H         -6.4654140006        3.3824164297        0.4499876944
 C         -5.1003103580        2.7460728588       -1.0544716882
 H         -5.8468075557        2.9052914115       -1.8372627335
 H         -5.1733460768        1.7004469538       -0.7485906362
 C         -3.7234227397        2.9877752115       -1.6697545643
 H         -3.6211881841        4.0403968475       -1.9403922060
 H         -3.6664880188        2.3982888445       -2.5886787344
 C         -2.5247795625        2.5890226492       -0.7909692588
 H         -2.2672511281        3.3764435674       -0.0864691833
 H         -1.6600822151        2.4420547778       -1.4445081357
 H         -3.5755742585        4.0637863734        1.1056394205
 H         -4.9824754472        4.1276454839        2.1435634650
 H         -5.2285425777        1.6911017284        2.0875631561
 H         -3.7185841733        2.2335454676        2.7938462604
 O         -3.6994829348       -0.0743773679        1.6046728442
 C         -3.1211462002       -1.2238258124        1.1046563077
 O         -3.4058254452       -2.2561896020        1.7444009946
 H          0.4385128911       -0.9171382955       -1.1161626115
 C          0.6949359888       -1.6899991939       -0.4063840182
 C         -0.2866829249       -2.5757783670        0.0146610136
 C          0.0538332522       -3.5475735207        0.9478785650
 C          1.3429288700       -3.6253863981        1.4464065179
 C          2.3164156376       -2.7344405686        1.0303857023
 C          1.9822131312       -1.7560815232        0.1038445322
 N          2.9622054513       -0.8207249399       -0.3147608087
 S          3.4331463514        0.2659784179        0.8949091471
 O          4.0332073190       -0.4811209300        1.9705011685
 O          2.3243185765        1.1247646827        1.2580099193
 C          4.6814612173        1.2023296276        0.0346258605
 C          5.9722193508        0.7114362106       -0.0044736728
 C          6.9370390339        1.4201954535       -0.7022616757
 C          6.5963265783        2.5998048437       -1.3473283098
 C          5.2962300497        3.0797643313       -1.2991153461
 C          4.3263336910        2.3750693353       -0.6034154252
 H          3.3054039024        2.7158800954       -0.5320108482
 H          5.0337938413        3.9979679210       -1.7997013289
 H          7.3486508436        3.1505040094       -1.8895697424
 H          7.9493451443        1.0515328210       -0.7409251491
 H          6.1910754635       -0.2047754384        0.5181443203
 H          2.6064856646       -0.2693107678       -1.0874137445
 H          3.3161011993       -2.7680288754        1.4307834094
 H          1.5912856927       -4.3849018241        2.1724009733
 H         -0.7066275085       -4.2303623272        1.2989681676
 C         -1.7021314931       -2.4499485804       -0.4969092588
 H         -2.3004847256       -3.2366570640       -0.0181565066
 C         -1.7702683488       -2.6435449152       -1.9990522665
 C         -1.6612190684       -4.0298681759       -2.5558695005
 C         -2.9726555985       -3.3057206109       -2.5982803577
 H         -3.3365136113       -2.9475817153       -3.5495667433
 H         -3.7547466143       -3.6257033931       -1.9248596541
 H         -1.5542201415       -4.8429627660       -1.8538632015
 H         -1.1221021252       -4.1722557215       -3.4796892119
 H         -1.3177274259       -1.8369309987       -2.5598234603
 O         -1.3100599552        0.2681812901       -1.6532380859
