  62
        -98.94703047
 C         -1.5185451554       -1.0665283299        0.0827478544
 C         -2.5279841294       -0.6041121269        0.9572417412
 C         -3.0992719266        0.7106671632        0.6412356627
 C         -2.6100047212        1.4061377214       -0.4022091208
 C         -3.1288013521        2.7373741036       -0.8617617484
 C         -4.2321608391        2.5724937291       -1.9164956802
 C         -5.3234625407        1.5792244375       -1.5170841487
 H         -6.0616480615        1.5663166114       -2.3216766103
 H         -4.8899533636        0.5782097373       -1.4607207666
 C         -6.0206726009        1.9037767876       -0.1886593745
 H         -5.8389746772        2.9449091080        0.0803668303
 H         -7.0982120615        1.7855600615       -0.3200811415
 C         -5.6133402185        1.0017701473        0.9777426663
 H         -5.7059114805       -0.0457668635        0.6804125836
 H         -6.3131059082        1.1721658893        1.8002244451
 C         -4.1989214233        1.2214051317        1.5298102708
 H         -4.0503363527        2.2796871112        1.7560936953
 H         -4.1149928824        0.6573238057        2.4637802734
 H         -3.7733576657        2.2239084686       -2.8445036230
 H         -4.6780071562        3.5509572631       -2.1039724515
 H         -2.2967509322        3.2950381311       -1.2955871785
 H         -3.5093771000        3.2881415773       -0.0035044009
 O         -1.6102128047        0.9484001632       -1.1951863911
 C         -1.0288397766       -0.2866258051       -0.9660482343
 O         -0.1108067728       -0.5788986935       -1.7558757589
 O         -2.9263743476       -1.2586014580        1.9610190394
 C         -0.8732485521       -2.4171831331        0.3429851349
 C          0.6126396840       -2.2270057783        0.5131844926
 C          1.5720073767       -2.9977589021       -0.1302768803
 C          2.9186173828       -2.7037029845        0.0033418183
 C          3.3344902168       -1.6244060749        0.7615781519
 C          2.3828087660       -0.8649383708        1.4279559602
 C          1.0414484982       -1.1840709280        1.3257880645
 H          0.3084278850       -0.5727885388        1.8387368137
 N          2.8060865162        0.3046457951        2.1287592607
 S          2.5629999608        1.6662780438        1.1525170601
 O          3.0875862003        2.7867650482        1.9057798751
 O          1.1753495906        1.7908510488        0.7561221894
 C          3.6059768324        1.3135034886       -0.2404694533
 C          4.9478050216        1.6287851636       -0.1444397614
 C          5.7878110127        1.3069937404       -1.1977470780
 C          5.2737312293        0.6719041839       -2.3187339997
 C          3.9248924840        0.3613625818       -2.3966755957
 C          3.0758027412        0.6820458068       -1.3481452340
 H          2.0226221369        0.4443968421       -1.3799811950
 H          3.5209389730       -0.1360417963       -3.2637723172
 H          5.9276013113        0.4161069420       -3.1375594550
 H          6.8371900331        1.5473131545       -1.1404676282
 H          5.2967615995        2.1218613410        0.7479321216
 H          2.2887017021        0.4492550475        2.9869162074
 H          4.3757223446       -1.3581634331        0.8415640042
 H          3.6502615685       -3.3070067498       -0.5110565826
 H          1.2624765839       -3.8199110792       -0.7545843008
 H         -1.2971802133       -2.7688299971        1.2955417684
 C         -1.2383097446       -3.3996128899       -0.7498844902
 C         -1.3005072114       -4.8684705662       -0.4575381097
 C         -2.5637274207       -4.0952675031       -0.6841106143
 H         -3.1099936357       -4.2519219701       -1.6020836463
 H         -3.1938935089       -3.8789235771        0.1663408985
 H         -0.9820682961       -5.5602757148       -1.2224785837
 H         -1.0767520598       -5.1876675839        0.5490216391
 H         -0.8871293974       -3.0826938126       -1.7256372035
