  62
        -98.94413904
 C         -1.7181245741       -1.4148001141        0.3796826382
 C         -1.7938402145       -0.1909913453        1.0961606311
 C         -3.0354778140        0.5793123375        0.9527486546
 C         -4.0338187041        0.0763283109        0.2045620611
 C         -5.3523370410        0.7509059367       -0.0388676393
 C         -5.3174607367        1.6109798946       -1.3094917978
 C         -4.1112619449        2.5464881505       -1.3867593398
 H         -3.2026342413        1.9474596554       -1.4827544760
 H         -4.2103434001        3.1294464202       -2.3048929975
 C         -3.9676956555        3.4969725015       -0.1899012684
 H         -3.7361747336        4.4965193224       -0.5635773407
 H         -4.9145554267        3.5640120137        0.3469166382
 C         -2.8531840476        3.1173418667        0.7869494976
 H         -2.6782188845        3.9684712382        1.4505668619
 H         -1.9322745128        2.9370423761        0.2270695561
 C         -3.1273013014        1.8950648677        1.6732555877
 H         -2.3595074237        1.8637121319        2.4522251018
 H         -4.0996868584        2.0025304436        2.1585071905
 H         -6.2384354810        2.1951753282       -1.3556000063
 H         -5.2926360893        0.9470501570       -2.1766760623
 H         -5.6025172139        1.3664727600        0.8231493109
 H         -6.1149625563       -0.0211959806       -0.1548709503
 O         -3.9344534992       -1.1036036960       -0.4540792752
 C         -2.7713225750       -1.8619452979       -0.4190494119
 O         -2.8295557028       -2.8826168501       -1.1322812501
 O         -0.8629762298        0.2328843684        1.8321197289
 C         -0.4246432714       -2.1971541577        0.5249819968
 C          0.5542891920       -1.8548886495       -0.5733290509
 C          0.2143672595       -1.9845323332       -1.9157818853
 C          1.1315782140       -1.6666060046       -2.9004662668
 C          2.3948463434       -1.2081442489       -2.5690639695
 C          2.7475149188       -1.0828082524       -1.2301491090
 C          1.8266470462       -1.4120971883       -0.2443614128
 H          2.1167177822       -1.3221240585        0.7906826682
 N          4.0322027174       -0.6538872742       -0.8707870591
 S          4.3111091548        0.3214613808        0.4575708075
 O          5.6799950902        0.7566682441        0.2882792184
 O          4.0200165014       -0.3998671900        1.6701254693
 C          3.2156175941        1.7144901548        0.2653133133
 C          3.6136025307        2.7330788682       -0.5805476602
 C          2.7707962256        3.8142934894       -0.7752691343
 C          1.5454639972        3.8598199102       -0.1259592768
 C          1.1638676745        2.8325321495        0.7214618538
 C          2.0020306638        1.7466225586        0.9196502473
 H          1.7077309035        0.9410065930        1.5719381986
 H          0.2147514755        2.8495410376        1.2330186735
 H          0.8868818868        4.7008489428       -0.2770480339
 H          3.0692033836        4.6172619245       -1.4299730900
 H          4.5807316534        2.6681661423       -1.0523553988
 H          4.6236224459       -0.3948907118       -1.6465068364
 H          3.1068817822       -0.9576332935       -3.3405201806
 H          0.8580575508       -1.7717391373       -3.9395518220
 H         -0.7716937711       -2.3378140018       -2.1768214771
 H          0.0150935261       -1.8557468290        1.4727432526
 C         -0.6114550892       -3.6995159008        0.6067769434
 C          0.4624470767       -4.5271938364        1.2440160962
 C         -0.8519754721       -4.3390496212        1.9395093676
 H         -1.5341432340       -5.1740751491        1.9936463215
 H         -0.8817466196       -3.6948878492        2.8065223401
 H          0.6861330925       -5.4941416330        0.8202463717
 H          1.3252528493       -4.0118666800        1.6398242594
 H         -1.1302454755       -4.1170821959       -0.2459076090
