  62
        -98.94083631
 C          0.4641993636        1.7979222454        0.6726379658
 C          1.2936187969        1.8635070290       -0.4709150907
 C          2.5825079461        1.1531840118       -0.3842936483
 C          2.8726718119        0.4456350590        0.7210129689
 C          4.1242828196       -0.3305064120        1.0495716724
 C          4.7977943634       -1.1197473746       -0.0789355812
 C          3.8299805004       -1.7647141457       -1.0813122938
 H          4.0728057997       -2.8240057768       -1.1774760062
 H          2.8069865771       -1.6929497836       -0.7095776608
 C          3.9020711393       -1.1376781865       -2.4748056979
 H          4.9492317945       -0.9681167483       -2.7349286819
 H          3.4944954612       -1.8446027717       -3.2010489924
 C          3.1292521492        0.1702972903       -2.6327980644
 H          2.0543107658       -0.0231928416       -2.5779194489
 H          3.3321574639        0.5655816319       -3.6311013437
 C          3.4619020598        1.2572894471       -1.5978190988
 H          4.5162720368        1.2394344599       -1.3329290563
 H          3.2343132129        2.2279186846       -2.0471400940
 H          5.4904906678       -0.4724814887       -0.6145246394
 H          5.4007830725       -1.8944175254        0.3979074940
 H          4.8492993711        0.3686139773        1.4775700123
 H          3.8307131353       -1.0139448351        1.8496868468
 O          2.0173704772        0.3710064087        1.7817241708
 C          0.8104115967        1.0458899134        1.7929592357
 O          0.1443833548        0.8951291101        2.8382285541
 H         -1.3604494447       -0.0746047480        0.3369940053
 C         -1.8915447248        0.5098157738       -0.4003332227
 C         -1.7641643474        1.8937540352       -0.3865627542
 C         -2.4545701977        2.6345348768       -1.3358392502
 C         -3.2436080122        1.9969125889       -2.2781664633
 C         -3.3772962885        0.6210548211       -2.2799288782
 C         -2.6962214601       -0.1301046504       -1.3274568264
 N         -2.7952098312       -1.5287195587       -1.3019129709
 S         -2.8168814180       -2.3470948298        0.1587699376
 O         -3.4709850117       -3.6018543890       -0.1504590055
 O         -3.4264965046       -1.5561337544        1.2016509706
 C         -1.1090114219       -2.6845019476        0.5256364730
 C         -0.3879724350       -3.4300867403       -0.3871237453
 C          0.9283787658       -3.7488301230       -0.0998993437
 C          1.4997964718       -3.3208558286        1.0900048240
 C          0.7637087678       -2.5732086788        1.9948032696
 C         -0.5552284257       -2.2519932343        1.7131423384
 H         -1.1491477990       -1.6598460360        2.3928550234
 H          1.2043914164       -2.2229443854        2.9148352413
 H          2.5252511704       -3.5704010820        1.3128470545
 H          1.5067756556       -4.3273986692       -0.8019944426
 H         -0.8710582158       -3.7512589367       -1.2949165032
 H         -3.4476065906       -1.9236227316       -1.9634625227
 H         -4.0000559549        0.1282250062       -3.0109394222
 H         -3.7695060502        2.5820587391       -3.0173671147
 H         -2.3710268904        3.7086912222       -1.3436869384
 C         -0.8810485673        2.5010228262        0.6774493634
 H         -1.3377637850        2.2774935123        1.6535691831
 C         -0.7080103228        3.9993789554        0.5511097915
 C         -1.7422433750        4.9251634030        1.1151714380
 C         -0.4059561963        4.7988870317        1.7813706959
 H          0.2898572532        5.6208150789        1.7046785715
 H         -0.3486797086        4.2647612883        2.7190152686
 H         -2.5961055024        4.4814047708        1.6050716288
 H         -1.9640157125        5.8382173924        0.5835654491
 H         -0.2075738122        4.2858498300       -0.3662569259
 O          0.9866858905        2.4978393169       -1.5133248008
