  62
        -98.94600141
 C         -1.5991332559       -1.3408333691       -0.7819852717
 C         -2.7999994843       -0.8886011423       -0.1739481369
 C         -3.2685681005        0.4438390411       -0.5616348825
 C         -2.5878718674        1.1433937756       -1.4867400690
 C         -2.9128542782        2.5309687831       -1.9668730213
 C         -2.3356094754        3.6271539610       -1.0602821249
 C         -3.0616437922        3.8105899401        0.2731850245
 H         -2.7125169963        4.7530480600        0.7000327417
 H         -4.1334668844        3.9086130785        0.0948552531
 C         -2.8050659557        2.6885540936        1.2895079516
 H         -2.5951980380        3.1275134402        2.2683377763
 H         -1.9095683810        2.1320281213        0.9983980830
 C         -3.9717349982        1.7162042097        1.4723416574
 H         -4.8230081050        2.2459905834        1.9066186191
 H         -3.6599877113        0.9411027598        2.1775232731
 C         -4.4325187173        1.0238552552        0.1828892551
 H         -5.0987026468        0.2013843053        0.4552029467
 H         -4.9789207329        1.7249329694       -0.4474577139
 H         -2.3824350873        4.5699849551       -1.6107872169
 H         -1.2831597909        3.4015064812       -0.8670975552
 H         -3.9928628613        2.6534887673       -2.0524136997
 H         -2.4686549795        2.6330418905       -2.9593223396
 O         -1.4934399093        0.6439907091       -2.1101531811
 C         -0.9276564531       -0.5646180778       -1.7252590881
 O          0.1388167794       -0.8145148136       -2.3225948360
 O         -3.4444766201       -1.5714456346        0.6677119291
 C         -1.0261594879       -2.6332702310       -0.2216666514
 C         -0.2552814070       -2.2795190734        1.0306423193
 C         -0.5418341987       -2.8745360700        2.2519531892
 C          0.1044740891       -2.4559746613        3.4022665654
 C          1.0164600213       -1.4180735007        3.3582313595
 C          1.3159894841       -0.8202327549        2.1371273122
 C          0.7118403403       -1.2848341053        0.9801589646
 H          0.9500636804       -0.8239344708        0.0362931325
 N          2.2217187906        0.2452080723        2.0687017178
 S          2.0722994521        1.4990302284        0.9605992964
 O          2.5330569980        2.6669983606        1.6855143502
 O          0.7435132222        1.5822366865        0.4063535865
 C          3.3001886522        1.0881221455       -0.2619137128
 C          2.9521510754        0.5699729596       -1.4916480203
 C          3.9605462035        0.2442571971       -2.3877123723
 C          5.2880547222        0.4407491726       -2.0436059345
 C          5.6213004985        0.9658125125       -0.8034811046
 C          4.6205567896        1.2917741744        0.0955481511
 H          4.8326005583        1.7144446570        1.0635627550
 H          6.6544546979        1.1201737209       -0.5369427541
 H          6.0655129948        0.1842339755       -2.7459463915
 H          3.6927006578       -0.1651475946       -3.3488170167
 H          1.9140746890        0.4149149575       -1.7449096627
 H          2.5407198972        0.5854843159        2.9636772089
 H          1.4882865369       -1.0619909970        4.2615296154
 H         -0.1266142083       -2.9221560102        4.3481373381
 H         -1.2953704213       -3.6462363341        2.3024421020
 H         -1.8931240930       -3.2367778041        0.0815974601
 C         -0.1833368603       -3.4492217358       -1.1770246479
 C         -0.0361588008       -4.9211176323       -0.9357033291
 C         -0.8501493969       -4.4286380175       -2.0936126191
 H         -0.4579715611       -4.5442259583       -3.0924897399
 H         -1.9254605647       -4.5148272742       -2.0352693276
 H          0.9188598893       -5.3809168047       -1.1373251688
 H         -0.5607134371       -5.3467579369       -0.0937728956
 H          0.6739483068       -2.9147848290       -1.5633419131
