  62
        -98.93480462
 C          1.5218806500        1.3805103344        0.5702967033
 C          1.7737139218        0.1398967184        1.2118449185
 C          2.9596712312       -0.5953557037        0.7627112707
 C          3.7288885832       -0.0838117872       -0.2148012505
 C          4.9804449406       -0.7047240893       -0.7737328812
 C          4.7228080877       -1.7587460547       -1.8595011249
 C          4.1519531126       -3.0858417007       -1.3577629646
 H          4.2290233046       -3.7981853387       -2.1815617129
 H          4.7725547795       -3.4617908736       -0.5437731916
 C          2.6875921467       -3.0142075775       -0.9020188598
 H          2.2261496151       -2.1061382232       -1.2971472737
 H          2.1350750374       -3.8592424947       -1.3179445669
 C          2.4915645864       -3.0477944530        0.6134681056
 H          2.8198073334       -4.0131309136        1.0047364296
 H          1.4245121078       -2.9385719722        0.8197558403
 C          3.2302424354       -1.9379037855        1.3712919608
 H          2.8592881514       -1.9181208390        2.3988707846
 H          4.3013263581       -2.1383002891        1.3898654336
 H          5.6782216704       -1.9606049117       -2.3494832495
 H          4.0500512015       -1.3319669752       -2.6069889760
 H          5.5625982496       -1.1476733409        0.0348954496
 H          5.5607224939        0.1086831135       -1.2145939414
 O          3.4517223094        1.1032616555       -0.8121414514
 C          2.3397162559        1.8591363445       -0.4550352274
 O          2.2179632357        2.9018705469       -1.1201305968
 O          1.0420150110       -0.3296769927        2.1244442545
 C          0.2869324968        2.1495663771        1.0234535684
 C         -0.6911080330        2.2571516425       -0.1196911577
 C         -0.7318631205        3.2822671842       -1.0578622413
 C         -1.6538151258        3.2530477423       -2.0902704974
 C         -2.5564149096        2.2137187368       -2.2123209321
 C         -2.5149298698        1.1704548837       -1.2938521890
 C         -1.5847300718        1.1991847348       -0.2675151513
 H         -1.5560313135        0.3814639249        0.4377290326
 N         -3.3893323553        0.0821013653       -1.4098888910
 S         -3.9743881348       -0.7187559189       -0.0641575061
 O         -5.1908979530       -1.3500322599       -0.5315251619
 O         -4.1147736657        0.1661638196        1.0678743570
 C         -2.7722963188       -1.9882745593        0.2651655658
 C         -2.4567108117       -2.8605262666       -0.7581708081
 C         -1.5660378866       -3.8910639956       -0.5081064548
 C         -1.0119933052       -4.0340548766        0.7554570480
 C         -1.3342091101       -3.1465802196        1.7704835007
 C         -2.2239859905       -2.1128894408        1.5253529891
 H         -2.4954929306       -1.4007376529        2.2888249392
 H         -0.8916505150       -3.2468676294        2.7485387619
 H         -0.3253376016       -4.8427498245        0.9513679345
 H         -1.3074619159       -4.5807578845       -1.2954398916
 H         -2.9161573117       -2.7225569967       -1.7228422188
 H         -4.0862761491        0.1675007359       -2.1347065561
 H         -3.2793238475        2.2010266299       -3.0138955415
 H         -1.6697502441        4.0589663121       -2.8086642102
 H         -0.0248421356        4.0906012207       -1.0115773094
 H         -0.1815080351        1.4722702962        1.7554042597
 C          0.6433950095        3.3948569837        1.8255771800
 C          1.2420759870        4.6593324096        1.2893568738
 C         -0.1644593999        4.6576018388        1.8069932958
 H         -0.3635292370        5.1499195089        2.7474003497
 H         -0.9730852159        4.7268144247        1.0963595849
 H          2.0044803075        5.1362769951        1.8895429239
 H          1.4292337080        4.7353053694        0.2317365265
 H          1.0241867770        3.0958259817        2.7997420484
