  62
        -98.93715408
 C          2.4416205214        0.9640740512       -0.1690663023
 C          3.6015850257        0.8884987979        0.6334936995
 C          4.6765638434       -0.0106176539        0.1707595391
 C          4.4965053169       -0.6965704222       -0.9736406635
 C          5.4222214300       -1.6970444897       -1.6129054434
 C          5.4025079843       -3.0597087141       -0.9010711969
 C          5.4346876659       -2.9900277925        0.6235017486
 H          4.5850220645       -2.4007183350        0.9732393610
 H          5.3026296739       -4.0059844105        1.0050618807
 C          6.7225168778       -2.4303022042        1.2230113577
 H          7.5643909520       -3.0491225638        0.9044702828
 H          6.6392665319       -2.5175222748        2.3094086392
 C          7.0383238891       -0.9713755399        0.8871552834
 H          7.4348395525       -0.8778873040       -0.1202361626
 H          7.8336571341       -0.6465787653        1.5645242156
 C          5.8757735515       -0.0042447613        1.0882227710
 H          5.4792767374       -0.1266373850        2.1027014102
 H          6.2660302159        1.0203523050        1.0547798289
 H          6.2489267619       -3.6482025572       -1.2590261736
 H          4.4845855405       -3.5772853321       -1.1900475678
 H          6.4307687695       -1.2970612314       -1.6578396094
 H          5.0733126223       -1.8360678544       -2.6384799397
 O          3.3579818631       -0.5896091290       -1.7172425566
 C          2.3089453706        0.2305091508       -1.3469913318
 O          1.3424949337        0.2219382392       -2.1328043021
 O          3.7377562140        1.5392239637        1.7055780772
 C          1.3041872630        1.8710209901        0.2633917590
 C          0.0479516324        1.0590511937        0.4586222234
 C          0.0841668314       -0.0270862629        1.3301518866
 C         -1.0378759897       -0.8041400959        1.5394343166
 C         -2.2238154788       -0.5181062335        0.8846080856
 C         -2.2756868487        0.5684344243        0.0239594547
 C         -1.1456291884        1.3527225166       -0.1795575431
 H         -1.2038055350        2.1917878054       -0.8551487032
 N         -3.4687860978        0.8608918312       -0.6529986077
 S         -4.9250675983        0.8265162296        0.1729768022
 O         -5.8058048129        1.6881666254       -0.5850357123
 O         -4.7518451585        1.1554945420        1.5687210983
 C         -5.4775383836       -0.8576477225        0.0042574290
 C         -5.8324142864       -1.5824333146        1.1249530213
 C         -6.2727815218       -2.8874643568        0.9676357443
 C         -6.3511279464       -3.4410133455       -0.3010094165
 C         -5.9934314588       -2.6987767020       -1.4167944735
 C         -5.5533001589       -1.3935853389       -1.2663151961
 H         -5.2681793307       -0.7845555698       -2.1079385440
 H         -6.0551902231       -3.1326665720       -2.4018850915
 H         -6.6932427446       -4.4568167800       -0.4213370604
 H         -6.5517678167       -3.4660634083        1.8336046744
 H         -5.7506930278       -1.1128539038        2.0924194741
 H         -3.4105942111        1.6538821140       -1.2744303588
 H         -3.1019024792       -1.1233086870        1.0395804749
 H         -0.9907857394       -1.6444680029        2.2155421768
 H          1.0108827312       -0.2536747356        1.8399447011
 H          1.6061725471        2.2714213263        1.2425288000
 C          1.1514017552        3.0238724762       -0.7058221349
 C          0.5400860841        4.3144981768       -0.2504202003
 C          2.0107016384        4.2380635563       -0.5280101567
 H          2.3967632020        4.7300571386       -1.4081383282
 H          2.6921424400        4.2447275138        0.3100143158
 H         -0.0828519251        4.8640628135       -0.9403610369
 H          0.2199966746        4.3798888963        0.7786561581
 H          0.9589226719        2.6939300739       -1.7208280220
