  62
        -98.94138984
 C         -1.5722448768       -0.3945204312        0.3287871165
 C         -2.7092376929       -1.0257076278       -0.2317086198
 C         -3.7475418029       -0.1247879712       -0.7581641026
 C         -3.5535108871        1.2053855592       -0.7275780938
 C         -4.5491472406        2.2306156052       -1.1855491550
 C         -5.4609467529        2.6739305756       -0.0327647459
 C         -6.0697331842        1.5139155905        0.7550952459
 H         -5.2718226954        0.9770760869        1.2732322136
 H         -6.7167374305        1.9456027230        1.5218833967
 C         -6.8764802262        0.5227614291       -0.0952668922
 H         -7.1417107226        0.9820209404       -1.0482730881
 H         -7.8092794608        0.2936627582        0.4244840026
 C         -6.1720050256       -0.8102968519       -0.3542277260
 H         -5.8231700276       -1.2300756973        0.5926674905
 H         -6.9050503849       -1.5067605309       -0.7700881261
 C         -4.9858531342       -0.7604763981       -1.3255082052
 H         -4.7099769018       -1.7913623592       -1.5658291091
 H         -5.2870640144       -0.2621393921       -2.2490979721
 H         -6.2588966497        3.2954365963       -0.4432393015
 H         -4.8745791808        3.2851827964        0.6570725654
 H         -4.0023325979        3.0980633040       -1.5587918937
 H         -5.1460736210        1.8141255062       -1.9945552461
 O         -2.4283959225        1.7745387951       -0.2252163687
 C         -1.4222483201        0.9964102908        0.3197672934
 O         -0.4560712962        1.6486714283        0.7621923110
 H          2.0260248755       -0.2191595059        0.3476163515
 C          1.7572189611       -1.0441272640       -0.2939422679
 C          0.5214293478       -1.6550902187       -0.1370349958
 C          0.1742838328       -2.6981289206       -0.9890545327
 C          1.0563605366       -3.1208370559       -1.9663278956
 C          2.2993946352       -2.5279763876       -2.1022199132
 C          2.6519567041       -1.4784978461       -1.2614438570
 N          3.8922608827       -0.8418620930       -1.3934595301
 S          4.6915903307       -0.2100055799       -0.0689538883
 O          6.0700942691       -0.1142422258       -0.5003180664
 O          4.4540686361       -0.9920654665        1.1218517363
 C          4.0273985231        1.4303354191        0.1124609163
 C          4.0579969164        2.2698610873       -0.9830952215
 C          3.5564370417        3.5544942817       -0.8546712155
 C          3.0372147578        3.9757893718        0.3601317277
 C          3.0179541047        3.1225445389        1.4517227635
 C          3.5188888359        1.8366837551        1.3293114962
 H          3.5166476787        1.1395112164        2.1529028593
 H          2.6078371091        3.4495957236        2.3935707867
 H          2.6416956526        4.9744959437        0.4577180739
 H          3.5679011945        4.2225638856       -1.7009905106
 H          4.4713796549        1.9071409968       -1.9095335141
 H          4.5234961793       -1.2586983611       -2.0613410280
 H          2.9910518762       -2.8692442299       -2.8575271483
 H          0.7772898160       -3.9293973605       -2.6251358168
 H         -0.7969444005       -3.1572100760       -0.8908670560
 C         -0.4124052865       -1.1632777542        0.9428606987
 H          0.1420132711       -0.4299290293        1.5443756175
 C         -0.8465706984       -2.2930701364        1.8554995947
 C          0.1567144918       -2.8675946263        2.8083818680
 C         -0.9797323905       -2.0381506052        3.3251425362
 H         -1.7751280792       -2.5315554760        3.8635062849
 H         -0.7621986145       -1.0423935030        3.6839162106
 H          0.1426810387       -3.9309374559        2.9924801952
 H          1.1473582555       -2.4361829906        2.8112135329
 H         -1.5578051561       -2.9703702477        1.4026216530
 O         -2.8753551431       -2.2722649292       -0.2985467476
