  62
        -98.94597411
 C          1.6067159895        1.3038809993        0.3664968918
 C          1.5436093296        0.2628148597       -0.5908688187
 C          2.4133914596       -0.8967524504       -0.3351299790
 C          3.1625264994       -0.9312373409        0.7816339311
 C          4.1155943493       -2.0320938211        1.1443723008
 C          5.5286576594       -1.7375631509        0.6217127512
 C          5.5693262197       -1.3237647902       -0.8494360386
 H          5.0668123897       -0.3604696502       -0.9634206083
 H          6.6176296697       -1.1714610801       -1.1153888483
 C          4.9408823499       -2.3402283698       -1.8130918991
 H          5.6006816301       -2.4587282294       -2.6752309291
 H          4.8658228198       -3.3140567700       -1.3277915196
 C          3.5684144200       -1.9375570896       -2.3562620492
 H          3.3214567802       -2.6076244392       -3.1842069196
 H          3.6182769001       -0.9234542594       -2.7609675888
 C          2.4083526898       -2.0025072300       -1.3543793095
 H          1.4774283099       -1.8915091197       -1.9185804696
 H          2.4008982597       -2.9811885602       -0.8696629599
 H          5.9565468893       -0.9273044811        1.2164833017
 H          6.1435026494       -2.6274294409        0.7681881010
 H          4.1502565891       -2.1115953116        2.2321548008
 H          3.7541283694       -2.9721404509        0.7320587504
 O          3.1679278792        0.0699951987        1.6969252715
 C          2.4062170192        1.2091059188        1.5103494619
 O          2.5208447390        2.0559267384        2.4174299523
 H         -1.1396159402        1.7389797201       -1.5382389786
 C         -1.5003085404        1.7468675497       -0.5223368887
 C         -0.6714919006        2.1790060392        0.5010096017
 C         -1.1535268008        2.1498447787        1.8064289316
 C         -2.4337170009        1.7021876286        2.0772620611
 C         -3.2485606707        1.2434723590        1.0564163408
 C         -2.7672073904        1.2527845896       -0.2456834991
 N         -3.5530378102        0.7073320000       -1.2783784695
 S         -4.1975103003       -0.8089958601       -0.9725318503
 O         -4.2297656500       -1.4839380796       -2.2518470506
 O         -5.4763051404       -0.6568151504       -0.3215473505
 C         -3.0670077405       -1.6260598906        0.1469616895
 C         -1.7182915305       -1.6609352905       -0.1482770202
 C         -0.8562695706       -2.2810358409        0.7419242097
 C         -1.3509160109       -2.8629721014        1.8984881694
 C         -2.7088237109       -2.8304514015        2.1743221591
 C         -3.5748789408       -2.2026395011        1.2940363592
 H         -4.6355336708       -2.1402013512        1.4762104390
 H         -3.0926287811       -3.2846250919        3.0735717288
 H         -0.6714056010       -3.3402385017        2.5869479893
 H          0.2013772294       -2.2906765008        0.5293286999
 H         -1.3376700003       -1.1974255601       -1.0451417799
 H         -3.0864147900        0.7151171104       -2.1746316494
 H         -4.2404244307        0.8667627289        1.2489589304
 H         -2.7965391511        1.6944644781        3.0936072510
 H         -0.5031994510        2.4669615783        2.6094897018
 C          0.7635690295        2.5653853393        0.2407429621
 H          1.0916754093        3.2278955690        1.0518599825
 C          0.9758346398        3.2736639199       -1.0809697175
 C          0.4726494798        4.6755760800       -1.2438405070
 C          1.9452051798        4.4133331999       -1.1531407368
 H          2.5451608700        4.5239744303       -2.0441472567
 H          2.4591883996        4.6919531695       -0.2446772666
 H          0.0598493000        4.9693342204       -2.1968310170
 H         -0.0147014504        5.1308972896       -0.3949094169
 H          0.9269575999        2.6167492803       -1.9399212178
 O          0.8092733999        0.2809279401       -1.6141202688
