  62
        -98.94324950
 C         -2.6205253853       -0.0430055141        0.1331772404
 C         -2.4041189216        1.0098892744        1.0531899911
 C         -2.1106469300        2.3256359827        0.4729646070
 C         -2.0411226287        2.4526067606       -0.8645793026
 C         -1.7608662560        3.7358837431       -1.5912193751
 C         -0.2663570491        3.9175135573       -1.8842680279
 C          0.6394100625        3.7091585927       -0.6704685436
 H          0.6293975855        2.6523356941       -0.3924340355
 H          1.6589644325        3.9382308053       -0.9904042713
 C          0.2840052078        4.5695885844        0.5500956304
 H          1.2087202922        4.9680880720        0.9728782346
 H         -0.3240740550        5.4206239437        0.2404326743
 C         -0.4291317730        3.8162168485        1.6748600875
 H         -0.3889912282        4.4327225610        2.5770665727
 H          0.1085503472        2.8876310346        1.8843000650
 C         -1.9026557758        3.4719178290        1.4221885960
 H         -2.3404806799        3.1553857681        2.3735379332
 H         -2.4354799228        4.3608478027        1.0780303170
 H         -0.1173484768        4.9228180498       -2.2844437511
 H          0.0276343583        3.1971687526       -2.6516352515
 H         -2.1269253274        4.5683331970       -0.9927613148
 H         -2.3046888471        3.7143841082       -2.5376504702
 O         -2.2123637093        1.4099159529       -1.7167849179
 C         -2.4719291643        0.1334486155       -1.2426233882
 O         -2.5659759743       -0.7339476525       -2.1324313390
 O         -2.4627623841        0.8557368534        2.3046784374
 C         -2.9011387888       -1.4389568248        0.6678389126
 C         -1.7061485921       -2.3004404817        0.3439777033
 C         -1.7555869564       -3.4712952767       -0.3996947769
 C         -0.5888965558       -4.1358560363       -0.7414971980
 C          0.6469262716       -3.6472565022       -0.3569457857
 C          0.7004893131       -2.4959232618        0.4138497056
 C         -0.4648236757       -1.8420843176        0.7685260352
 H         -0.4094842491       -0.9287909431        1.3488312855
 N          1.9708865882       -1.9411434991        0.7610953652
 S          2.3590393089       -0.7346663826       -0.3684153834
 O          1.5662168033        0.4518785513       -0.1239649057
 O          2.2671251209       -1.3152668877       -1.6839326521
 C          4.0672062075       -0.4215464049        0.0371093468
 C          4.9947153319       -1.3992736801       -0.2676288775
 C          6.3215331120       -1.1929260934        0.0731158334
 C          6.6962809674       -0.0191530634        0.7106507798
 C          5.7540503328        0.9531005779        1.0087147141
 C          4.4241773307        0.7516296433        0.6719961425
 H          3.6573233238        1.4806014751        0.8809903777
 H          6.0476537672        1.8654294161        1.5025543158
 H          7.7296333571        0.1394489258        0.9757398242
 H          7.0574590216       -1.9460872642       -0.1577826974
 H          4.6558762216       -2.2904441645       -0.7689241887
 H          1.9234388607       -1.4811420143        1.6630911188
 H          1.5629230888       -4.1314391887       -0.6526710269
 H         -0.6444417289       -5.0359941243       -1.3346714806
 H         -2.7069401834       -3.8507608785       -0.7352067591
 H         -2.9613697400       -1.3269483685        1.7604518886
 C         -4.2156587118       -1.9823703106        0.1551936477
 C         -4.9288709048       -3.0540482930        0.9230562162
 C         -5.4757184509       -1.6593731789        0.8988885699
 H         -6.3724394059       -1.4645134056        0.3303532483
 H         -5.3855279584       -1.0572734525        1.7912273806
 H         -5.4541094156       -3.8196004920        0.3726798308
 H         -4.4697784453       -3.4024152475        1.8357593369
 H         -4.2654213313       -2.0048463751       -0.9271897805
