  62
        -98.93985547
 C          1.4430014604        1.1809621098        0.0773693505
 C          2.4252868902        0.8119032297        1.0210404706
 C          3.1243911103       -0.4683470403        0.7904342906
 C          2.7605378205       -1.2225392602       -0.2636976395
 C          3.3467944807       -2.5350614801       -0.7113732795
 C          4.6998668808       -2.3651741800       -1.4216835493
 C          5.6615976006       -1.3886447901       -0.7497197290
 H          6.5278367908       -1.2709810200       -1.4061167188
 H          5.1825131706       -0.4111984101       -0.6685984789
 C          6.1728435604       -1.8187806002        0.6231686411
 H          6.9056470503       -1.0742239602        0.9448167113
 H          6.6922442704       -2.7751571502        0.5289296211
 C          5.1151587102       -1.9484209003        1.7211645609
 H          5.6447082200       -2.0217722004        2.6757871810
 H          4.5489116402       -2.8697456403        1.6129795007
 C          4.1693977901       -0.7572467604        1.8413249008
 H          3.6214510099       -0.8431611105        2.7880635807
 H          4.7613855201        0.1603670596        1.9363942210
 H          5.1717368808       -3.3456576400       -1.5044474593
 H          4.5062196610       -1.9970682499       -2.4320319093
 H          3.4338105505       -3.2132437002        0.1323950504
 H          2.6387956508       -2.9736754001       -1.4178324397
 O          1.7797045907       -0.8405161901       -1.1309397597
 C          1.1072883107        0.3626094199       -1.0013039597
 O          0.2542654008        0.5779454399       -1.8794532998
 O          2.7146795700        1.5197997996        2.0252760308
 C          0.6896871203        2.4861931197        0.2548036105
 C         -0.7924158697        2.2137214997        0.3334694301
 C         -1.7451987495        2.9497891397       -0.3578704900
 C         -3.0876832496        2.6220940997       -0.2679869703
 C         -3.5091172697        1.5585246396        0.5077046695
 C         -2.5644884498        0.8227804395        1.2120040296
 C         -1.2233860398        1.1586116796        1.1286762299
 H         -0.4912048899        0.5789477995        1.6779502500
 N         -2.9800360599       -0.2770313306        1.9888764394
 S         -3.9174733197       -1.4216901605        1.1986301191
 O         -5.2860900798       -0.9700706705        1.1645084589
 O         -3.6808368499       -2.6602399206        1.9075059790
 C         -3.2630196594       -1.5080340103       -0.4574141908
 C         -1.9834492794       -1.9987553003       -0.6257095106
 C         -1.4420359791       -2.0385762201       -1.8991434705
 C         -2.1843348989       -1.5819958500       -2.9767902906
 C         -3.4673745790       -1.0928293701       -2.7918979308
 C         -4.0154337592       -1.0528208502       -1.5200034209
 H         -5.0088569493       -0.6797066803       -1.3316686110
 H         -4.0393236988       -0.7363337800       -3.6334233908
 H         -1.7519829887       -1.6020595599       -3.9644029105
 H         -0.4382173091       -2.4037586301       -2.0452089703
 H         -1.4311921395       -2.3457436003        0.2342556595
 H         -2.2206174300       -0.7289692406        2.4777920695
 H         -4.5482364897        1.2809649295        0.5789245993
 H         -3.8156497695        3.1996759997       -0.8166606004
 H         -1.4367937794        3.7756265198       -0.9773209498
 H          1.0209423401        2.8904856996        1.2230727206
 C          1.0675767205        3.4643018098       -0.8378427494
 C          1.0364925805        4.9401793998       -0.5789345792
 C          2.3492144705        4.2298967899       -0.7105654490
 H          2.9419020607        4.3960236500       -1.5976108889
 H          2.9364335503        4.0674191998        0.1816412811
 H          0.7297404406        5.5978213699       -1.3782023492
 H          0.7361945702        5.2700832097        0.4040893208
 H          0.7924729607        3.1092752699       -1.8247078794
