  62
        -98.93799839
 C         -1.3794204440       -1.5990284405       -0.8994772470
 C         -2.5930951192       -1.4040547753       -0.1946250756
 C         -3.3402885244       -0.1670945536       -0.4712512430
 C         -2.8451102963        0.7011461383       -1.3698206037
 C         -3.3781536595        2.0618379770       -1.7223255157
 C         -2.6895457699        3.1359756890       -0.8615081750
 C         -3.3779905333        3.4243591851        0.4710936950
 H         -2.7368687161        4.1176228196        1.0208190056
 H         -4.3306444079        3.9269164086        0.2874730080
 C         -3.6265460476        2.1924631333        1.3453639331
 H         -2.7432535676        1.5499157236        1.3181806178
 H         -3.7450709767        2.5310621995        2.3769502094
 C         -4.8777474968        1.4011900746        0.9347452392
 H         -5.5012899888        1.2322031955        1.8152142296
 H         -5.4693238769        2.0067743101        0.2480025673
 C         -4.6121820073        0.0234618733        0.3090294246
 H         -5.4591001481       -0.2449372798       -0.3316162764
 H         -4.5654189941       -0.7316790320        1.1000354312
 H         -1.6623977790        2.8120846474       -0.6691833306
 H         -2.6414118068        4.0678252084       -1.4292813088
 H         -4.4579082162        2.0982682702       -1.6099465720
 H         -3.1252164671        2.2374332370       -2.7700337484
 O         -1.7027248782        0.4578912067       -2.0608366461
 C         -0.9162440785       -0.6592711361       -1.8190766952
 O          0.1278425570       -0.6827315222       -2.4972455339
 O         -3.0286381629       -2.2357636907        0.6490084147
 C         -0.5575533291       -2.8101505930       -0.4882632641
 C          0.1759262199       -2.4614344919        0.7842113183
 C          0.1475867624       -3.2905037965        1.8975227294
 C          0.7546462310       -2.8945567096        3.0773416507
 C          1.3720907035       -1.6612867117        3.1743954896
 C          1.4116540864       -0.8254726255        2.0612999003
 C          0.8462717895       -1.2488146148        0.8697475793
 H          0.8756199945       -0.6016414496        0.0097946682
 N          2.0243865183        0.4292666647        2.1334058895
 S          1.6564731937        1.7196950397        1.1290269010
 O          1.9312087240        2.8831012803        1.9480727516
 O          0.3247240091        1.6312338765        0.5825208216
 C          2.9131201363        1.6123641917       -0.1282578057
 C          2.6358926906        1.1339629163       -1.3917589731
 C          3.6679472802        1.0522554848       -2.3156022215
 C          4.9488571651        1.4468812846       -1.9655737998
 C          5.2108807585        1.9292006602       -0.6914063240
 C          4.1861925466        2.0122058634        0.2353844734
 H          4.3410627229        2.3935436920        1.2310514274
 H          6.2072611470        2.2390001308       -0.4201991663
 H          5.7452211472        1.3796376141       -2.6899562277
 H          3.4537483341        0.6744177360       -3.3025783680
 H          1.6364143947        0.8228266956       -1.6551329137
 H          2.2876266109        0.7303748677        3.0591195162
 H          1.8124942093       -1.3389281588        4.1055128807
 H          0.7242914550       -3.5431203395        3.9397979420
 H         -0.3772008768       -4.2329591743        1.8451147813
 H         -1.2932242639       -3.5918101670       -0.2382689027
 C          0.3470216083       -3.3639652666       -1.5756763732
 C          1.8306337302       -3.1687475752       -1.5860883390
 C          1.2582637349       -4.5164082900       -1.2711219704
 H          1.3551483738       -5.3051524760       -2.0014797664
 H          1.3088079840       -4.8519246072       -0.2462489889
 H          2.3050804440       -3.0124435532       -2.5423728242
 H          2.2762227606       -2.6012618100       -0.7838109635
 H         -0.1421414755       -3.3703577600       -2.5438650888
