  62
        -98.94382790
 C         -1.8203524746       -0.6754043502        0.6288386384
 C         -3.1246889494       -0.6099258247        1.1736567450
 C         -4.2196081460       -0.5163048357        0.2014481621
 C         -3.9451936210       -0.5250029302       -1.1159191056
 C         -4.9544193442       -0.4662548678       -2.2303882177
 C         -5.4052674822        0.9558774594       -2.5906172372
 C         -6.3258107377        1.6241695134       -1.5686688660
 H         -6.7352221777        2.5185662472       -2.0426024216
 H         -7.1629629740        0.9614462119       -1.3470515257
 C         -5.6304918024        2.0326287872       -0.2624243187
 H         -4.5486551551        2.0456415331       -0.4150867414
 H         -5.9267183798        3.0494216762        0.0054857275
 C         -5.9520037652        1.1372028297        0.9343873807
 H         -5.3799287818        1.4958403040        1.7941470800
 H         -7.0132160158        1.2205409718        1.1791189013
 C         -5.6136890058       -0.3447376572        0.7244904276
 H         -6.3347661505       -0.8028367058        0.0478347172
 H         -5.6710023861       -0.8495602126        1.6920137452
 H         -4.5187144759        1.5760045004       -2.7429537881
 H         -5.9371336719        0.8979181985       -3.5431231267
 H         -4.4749570508       -0.9069583564       -3.1071195410
 H         -5.8243894593       -1.0697199729       -1.9699144182
 O         -2.6781557415       -0.6115355907       -1.5998873135
 C         -1.5846654636       -0.6637900720       -0.7461678815
 O         -0.4846540648       -0.7024546871       -1.3257324717
 O         -3.3610401920       -0.6274984611        2.4119034393
 C         -0.6357066182       -0.7580203984        1.5719908142
 C          0.3083982691        0.4010420330        1.3649452406
 C         -0.2022973096        1.6679069735        1.0961184791
 C          0.6380196834        2.7442797422        0.8844419820
 C          2.0115283780        2.5872322108        0.9513025842
 C          2.5320703980        1.3349214616        1.2418612012
 C          1.6852201094        0.2522452468        1.4486827965
 H          2.1103033604       -0.7150541507        1.6686502163
 N          3.9350351046        1.1816344345        1.3163481900
 S          4.7727187687        1.2453326606       -0.1346720811
 O          6.1724108070        1.1522888544        0.2127257370
 O          4.3651535539        2.4240290279       -0.8536834260
 C          4.2718099712       -0.2322756145       -0.9988677690
 C          2.9953934413       -0.2955898241       -1.5208419536
 C          2.5674917872       -1.4774508874       -2.1049498376
 C          3.4232168605       -2.5666023046       -2.1644446364
 C          4.7067977972       -2.4844133689       -1.6443540618
 C          5.1342731566       -1.3106136843       -1.0457423375
 H          6.1187854283       -1.2044851999       -0.6192545066
 H          5.3695654362       -3.3334318504       -1.6960028831
 H          3.0848871183       -3.4853473874       -2.6177976141
 H          1.5571180780       -1.5333601868       -2.4777900267
 H          2.3426233918        0.5604737482       -1.4644812127
 H          4.2198455806        0.3515393813        1.8187501811
 H          2.6832212913        3.4096281839        0.7683205277
 H          0.2208286943        3.7159718878        0.6660679677
 H         -1.2748053785        1.7984977441        1.0443433526
 H         -1.0630770252       -0.6740507008        2.5830317223
 C          0.0418210761       -2.1075273042        1.4399914756
 C          0.6787515399       -2.7620672014        2.6287805177
 C         -0.6027249921       -3.3033413788        2.0720176726
 H         -0.5813696407       -4.2428516951        1.5408196250
 H         -1.5138224949       -3.1375900667        2.6283870386
 H          1.5815697763       -3.3356439615        2.4800586912
 H          0.6369091235       -2.2390404926        3.5724762007
 H          0.5064886751       -2.2434760976        0.4694420196
