  62
        -98.94237331
 C         -2.7119976942       -1.1906897736        0.1707086161
 C         -2.5611311303       -0.3165308297       -0.9332212071
 C         -3.4629207559        0.8450578364       -0.9574243694
 C         -4.3744918757        0.9977163075        0.0195906359
 C         -5.3020510352        2.1696740055        0.1527905313
 C         -4.6768011437        3.2731337242        1.0183468773
 C         -3.2470221685        3.6391993628        0.6191161914
 H         -2.9229606268        4.4464620586        1.2794935582
 H         -2.5924948751        2.7856439153        0.8113287231
 C         -3.0882628978        4.0803378894       -0.8426769796
 H         -4.0592964304        4.3607415197       -1.2524869589
 H         -2.4548260775        4.9692787859       -0.8728980713
 C         -2.4364699739        3.0378141726       -1.7529873814
 H         -1.5074275674        2.6835631295       -1.2987739535
 H         -2.1757850399        3.5253357344       -2.6961918088
 C         -3.3013750614        1.8172224770       -2.0919684416
 H         -4.2747009926        2.1453744961       -2.4618850837
 H         -2.7980835594        1.2645803534       -2.8906897673
 H         -5.3114147873        4.1592240662        0.9587081811
 H         -4.6647672922        2.9329420649        2.0564400517
 H         -5.5352546554        2.5573698423       -0.8369120371
 H         -6.2240477324        1.8276001154        0.6258085947
 O         -4.5181408656        0.1142879946        1.0403619394
 C         -3.6790449014       -0.9799605177        1.1567298726
 O         -3.8939551238       -1.6859478618        2.1623712151
 H          0.3649141243       -1.9302760718       -1.2865609352
 C          0.5592905187       -1.6473449578       -0.2645743492
 C         -0.4171647894       -1.8352914939        0.6999559773
 C         -0.1470148482       -1.4426935228        2.0086393132
 C          1.0676124544       -0.8713882195        2.3360168581
 C          2.0325984425       -0.6620254289        1.3650658950
 C          1.7724786471       -1.0480722757        0.0573399555
 N          2.7099685190       -0.7986281907       -0.9494129585
 S          4.3506274284       -0.7762271038       -0.6695658034
 O          4.9533748009       -0.8918474497       -1.9793301492
 O          4.7441996328       -1.7710211037        0.3015335151
 C          4.6597101654        0.8563080932       -0.0268843472
 C          4.0379687363        1.9313104619       -0.6311253750
 C          4.2882814017        3.2064429489       -0.1498049792
 C          5.1547828836        3.3856224562        0.9181216110
 C          5.7741235097        2.2967151969        1.5117838314
 C          5.5262544519        1.0184005011        1.0362802835
 H          5.9789958498        0.1425863048        1.4732650819
 H          6.4468861750        2.4376891629        2.3424328724
 H          5.3468581472        4.3796671817        1.2900867449
 H          3.8056383809        4.0547601755       -0.6081320177
 H          3.3676758794        1.7549800715       -1.4561910623
 H          2.4568601700       -1.1287104415       -1.8672602281
 H          2.9798035497       -0.2128054745        1.6149250743
 H          1.2653223847       -0.5769244066        3.3556348380
 H         -0.9098261790       -1.5820159208        2.7624245258
 C         -1.7850478455       -2.3809924914        0.3674430058
 H         -2.1623550623       -2.9145712548        1.2497978400
 C         -1.8051614753       -3.3257633755       -0.8152255937
 C         -1.2309230191       -4.7011852862       -0.6619777988
 C         -2.7132113080       -4.5165361519       -0.7828642785
 H         -3.1983122669       -4.8190494725       -1.6988644720
 H         -3.3204065286       -4.6587162558        0.0993119083
 H         -0.6968336437       -5.1346404741       -1.4939032495
 H         -0.8299702149       -4.9686576776        0.3041801665
 H         -1.6820145686       -2.8277267702       -1.7684523642
 O         -1.7226480083       -0.4830806895       -1.8572895478
