  62
        -98.93982782
 C          1.7455821997        1.4717077403       -0.5319434901
 C          1.4168203302        0.2241925101       -1.1090676301
 C          2.3713704907       -0.8853783394       -0.9009893502
 C          3.5306097207       -0.6406977789       -0.2651752803
 C          4.6444135912       -1.5959996483        0.0758128395
 C          4.3079282618       -2.4982385885        1.2707187496
 C          2.9316297921       -3.1544178991        1.2050929098
 H          2.7913075024       -3.7240629592        2.1280980698
 H          2.1577892017       -2.3838735595        1.1873801299
 C          2.7240022823       -4.1090947192        0.0310690898
 H          3.5050713827       -4.8727527789        0.0454320497
 H          1.7654990226       -4.6084530097        0.1952302800
 C          2.6851140819       -3.4662226593       -1.3587767502
 H          2.2268303521       -4.1910378295       -2.0377566501
 H          3.6854442017       -3.2760866888       -1.7397796203
 C          1.8466204613       -2.1951547697       -1.4371066201
 H          1.5917282110       -2.0031449098       -2.4858741500
 H          0.8900735614       -2.3642978701       -0.9262112399
 H          4.3473970716       -1.8912307685        2.1788136796
 H          5.0770434921       -3.2694751581        1.3462837895
 H          5.5100102109       -0.9824168479        0.3364113594
 H          4.9096188113       -2.1931057982       -0.7914777805
 O          3.8474912402        0.6033230113        0.1999386896
 C          2.9625326797        1.6580977809        0.1286541797
 O          3.3746425393        2.7094546811        0.6618773297
 O          0.3740006102        0.0080061897       -1.7813669399
 C          0.8061729091        2.6691457399       -0.5070250300
 C         -0.1230902506        2.5195910295        0.6757036901
 C         -0.0879545109        3.4295140895        1.7252000401
 C         -0.8901875707        3.2480458791        2.8379494902
 C         -1.7209717302        2.1473500288        2.9317811503
 C         -1.7647859899        1.2296086087        1.8858130104
 C         -0.9903552501        1.4376953691        0.7546462502
 H         -1.0224417199        0.7216610690       -0.0483194797
 N         -2.6000447594        0.1103494983        1.9668036005
 S         -2.2489421988       -1.3627702915        1.2450681005
 O         -2.8738802082       -2.3341627818        2.1217865505
 O         -0.8352020587       -1.5349405009        1.0195486303
 C         -3.1844019390       -1.3016319620       -0.2689002494
 C         -4.5583268889       -1.4030400526       -0.1504556392
 C         -5.3394112491       -1.3424310930       -1.2916689291
 C         -4.7362824493       -1.1827030027       -2.5307907692
 C         -3.3580383994       -1.0856767021       -2.6325027894
 C         -2.5684998192       -1.1452972717       -1.4927937295
 H         -1.4943335593       -1.0564820112       -1.5507966797
 H         -2.8840517696       -0.9592967719       -3.5929659895
 H         -5.3429433595       -1.1338899030       -3.4214426091
 H         -6.4120164591       -1.4189518335       -1.2137744590
 H         -4.9833004887       -1.5405665328        0.8299079608
 H         -3.0597133092       -0.0134294819        2.8563178805
 H         -2.3277729500        1.9906622085        3.8108594604
 H         -0.8541186709        3.9603380192        3.6484333302
 H          0.5913686087        4.2679186398        1.6753049700
 H          1.4447037488        3.5438307502       -0.3215092901
 C          0.0409806389        2.9010140295       -1.7933526199
 C         -0.4946368118        4.2713964393       -2.0763476099
 C          0.6581264083        3.7375624998       -2.8715975200
 H          0.4926480383        3.4543309897       -3.9000417500
 H          1.6404226182        4.1476539202       -2.6855001101
 H         -1.4558440419        4.3578258388       -2.5588926597
 H         -0.2935955321        5.0473056394       -1.3530602399
 H         -0.5534809308        2.0528881792       -2.1034192198
