  62
        -98.92948063
 C         -2.4826655915       -0.2097662563       -0.6216527258
 C         -2.0350554666       -0.7101069269        0.6226115384
 C         -1.4241663606       -2.0555251771        0.6176068868
 C         -1.3524994926       -2.7338710538       -0.5419708529
 C         -0.7826194233       -4.1045753371       -0.8060773455
 C          0.7501699942       -4.1248272600       -0.8306408185
 C          1.4115467304       -3.4515195405        0.3677780911
 H          2.4942139687       -3.5224826382        0.2283984247
 H          1.1608994781       -2.3892783497        0.3689344594
 C          1.0723096195       -4.0637848524        1.7260158510
 H          1.7414096718       -3.6027480996        2.4563193639
 H          1.2902714170       -5.1339291432        1.7023938913
 C         -0.3647329065       -3.8615971468        2.2199747393
 H         -0.3615681680       -4.0215736070        3.3019041522
 H         -1.0419656630       -4.6024689419        1.8015314679
 C         -0.9231258908       -2.4625822611        1.9809164787
 H         -1.7657132380       -2.2937379669        2.6615692299
 H         -0.1713073196       -1.7135391296        2.2568390930
 H          1.0762243442       -5.1653647245       -0.8946318611
 H          1.0852878923       -3.6064167849       -1.7331100985
 H         -1.1599452684       -4.8168416166       -0.0782008422
 H         -1.1497919966       -4.4055129307       -1.7903400866
 O         -1.8243522421       -2.2169359035       -1.7166020764
 C         -2.3601265171       -0.9483957779       -1.7945892782
 O         -2.7027679563       -0.5979725693       -2.9454466365
 H         -0.5071790350        1.2282843962       -1.1611636268
 C         -0.7548376421        1.9696657551       -0.4140318437
 C         -2.0853398004        2.1360402223       -0.0331702767
 C         -2.3604216378        3.1146291882        0.9127442801
 C         -1.3366149019        3.8605512674        1.4760993840
 C         -0.0162857577        3.6409159421        1.1372808742
 C          0.2739658606        2.6758779222        0.1799514630
 N          1.6003962797        2.3926352023       -0.2052415413
 S          1.9708935600        0.7458003009       -0.3613808453
 O          1.6032774241        0.3069863713       -1.6854860037
 O          1.4126693105        0.0065812347        0.7457606200
 C          3.7491032915        0.8001834999       -0.2316361236
 C          4.3598668732        0.4251929407        0.9496327337
 C          5.7408402462        0.5024150222        1.0442896361
 C          6.4824055361        0.9547141205       -0.0365407975
 C          5.8549768706        1.3268293484       -1.2165400419
 C          4.4751027528        1.2502125623       -1.3183238010
 H          3.9433361084        1.5186818236       -2.2162950437
 H          6.4347192588        1.6751300819       -2.0560087226
 H          7.5564936433        1.0149872755        0.0398774690
 H          6.2310206820        0.2102376220        1.9589181949
 H          3.7412128232        0.0746913464        1.7601917674
 H          2.2754445536        2.8505485986        0.3940099522
 H          0.7787261901        4.1998350453        1.6072514665
 H         -1.5772999359        4.6102771392        2.2148646041
 H         -3.3639068139        3.3004916413        1.2488709924
 C         -3.0501040509        1.2021544205       -0.7286747077
 H         -3.0052300268        1.4488311559       -1.8042566610
 C         -4.5286472680        1.1464684932       -0.3742145638
 C         -5.0956981556        1.3000400345        1.0014384574
 C         -5.4039226520        2.3214395384       -0.0544863061
 H         -6.3997675118        2.3236934160       -0.4731090885
 H         -4.9617142597        3.3019697566        0.0032571307
 H         -4.4121385904        1.5356350911        1.8005342448
 H         -5.8813185836        0.6202614795        1.2984399525
 H         -4.9947560320        0.3786336093       -0.9895032450
 O         -2.1382355247       -0.0694726658        1.7003907951
