  62
        -98.94413773
 C          2.5293254563        1.1515004661       -0.0806925121
 C          3.2265402807        0.3848174362        0.8826755988
 C          4.0044243288       -0.7444042831        0.3612268882
 C          4.0284456457       -0.9829844865       -0.9630883200
 C          4.7942878686       -2.0809253026       -1.6504190491
 C          4.0625640761       -3.4298724511       -1.6776693260
 C          3.9946469776       -4.1596827477       -0.3355591410
 H          3.6496677245       -5.1752861438       -0.5391909050
 H          4.9967647216       -4.2349214627        0.0875087941
 C          3.0497549650       -3.5144426303        0.6880629053
 H          2.4284569050       -4.2858357677        1.1492532747
 H          2.3743292481       -2.8251889057        0.1750586605
 C          3.7564072775       -2.7659297160        1.8186414188
 H          4.3356134059       -3.4711853676        2.4186743763
 H          2.9945671056       -2.3224955145        2.4657862553
 C          4.6896712105       -1.6429509088        1.3462369253
 H          4.9645477306       -1.0383224725        2.2140129646
 H          5.5957154410       -2.0648486867        0.9121780653
 H          3.0507505358       -3.2706208679       -2.0576721814
 H          4.5877281743       -4.0712737748       -2.3889578352
 H          4.9488009495       -1.7529399488       -2.6804823193
 H          5.7674358744       -2.2027619816       -1.1742270430
 O          3.3491099326       -0.2178949215       -1.8577412253
 C          2.5614769151        0.8468503411       -1.4418574989
 O          1.9596587008        1.4289765693       -2.3627078962
 O          3.1954173606        0.6290042907        2.1199911159
 C          1.6783394308        2.3185478981        0.3843275740
 C          0.2258788961        2.0671338382        0.0579050826
 C         -0.6079914657        3.0212824922       -0.5092676650
 C         -1.9348380134        2.7251402666       -0.7717768753
 C         -2.4588834267        1.4810037325       -0.4746987898
 C         -1.6381526268        0.5231937946        0.1072727208
 C         -0.3115910596        0.8245035840        0.3726722965
 H          0.3258247230        0.0770150502        0.8304033056
 N         -2.1580408883       -0.7486397218        0.4067097082
 S         -3.5810779142       -0.8330470048        1.2955157097
 O         -3.7265469143        0.3075607798        2.1700063087
 O         -3.5504642075       -2.1315464763        1.9326345806
 C         -4.8615529557       -0.8233245068        0.0590160233
 C         -4.8106645418       -1.7771580518       -0.9385205084
 C         -5.8051795917       -1.7893886913       -1.9033239679
 C         -6.8296662831       -0.8557009457       -1.8523552625
 C         -6.8685042705        0.0929248081       -0.8420092452
 C         -5.8757119177        0.1118211811        0.1253787568
 H         -5.8607318462        0.8341666571        0.9258613340
 H         -7.6658453805        0.8175764834       -0.8040727199
 H         -7.6022367771       -0.8678936197       -2.6048628496
 H         -5.7778643102       -2.5252596573       -2.6908000899
 H         -3.9997587659       -2.4863909805       -0.9405623283
 H         -1.4723678432       -1.3881914740        0.7813993499
 H         -3.4893782417        1.2455766580       -0.6845963421
 H         -2.5692819315        3.4747707343       -1.2193343877
 H         -0.2185926673        3.9964828679       -0.7505119582
 H          1.7785922267        2.3333974198        1.4806082750
 C          2.2114229481        3.6228187316       -0.1693869280
 C          2.0215094416        4.9002517792        0.5909703347
 C          3.3790648476        4.2714954222        0.5096720038
 H          4.1334842639        4.7442500041       -0.1009730476
 H          3.7729829114        3.7855244315        1.3905839293
 H          1.8460149921        5.8095384990        0.0362004096
 H          1.4951229883        4.8485392522        1.5321761602
 H          2.1794696892        3.6586764185       -1.2523473456
