  62
        -98.94094813
 C         -2.3162400989        0.8314458175        0.1522976565
 C         -3.6029112111        1.1949491593       -0.3127483429
 C         -4.7255037007        0.4486373126        0.2654885230
 C         -4.4901380898       -0.4959523441        1.1944983310
 C         -5.5316692805       -1.3265720874        1.8944024280
 C         -5.9769788024       -2.5646103344        1.1037601094
 C         -6.8603834652       -2.2776090177       -0.1111138704
 H         -7.2743323160       -3.2332695369       -0.4387527469
 H         -7.6968164386       -1.6465037162        0.1904864335
 C         -6.1231952292       -1.6290313150       -1.2910166944
 H         -6.4008576648       -2.1366802293       -2.2175116556
 H         -5.0461824044       -1.7619834360       -1.1639269347
 C         -6.4193762011       -0.1415329275       -1.4828369036
 H         -5.8186491740        0.2228401662       -2.3200900187
 H         -7.4721979418       -0.0075757330       -1.7405718547
 C         -6.1018364994        0.7278961915       -0.2591004056
 H         -6.1339325053        1.7762967814       -0.5652281495
 H         -6.8461933877        0.5674484300        0.5202807677
 H         -5.0875097874       -3.1143011889        0.7870322237
 H         -6.5361944953       -3.2047606818        1.7899843246
 H         -6.3996828575       -0.7082939694        2.1247550119
 H         -5.0827218592       -1.6602320688        2.8323711494
 O         -3.2381891800       -0.8007305459        1.6312468583
 C         -2.1211055561       -0.1638632670        1.1092357378
 O         -1.0374717210       -0.5656332892        1.5764283955
 O         -3.8017733209        2.0958980087       -1.1709910993
 C         -1.1029196885        1.5478859343       -0.4109474604
 C         -0.1549326724        0.5539926720       -1.0348817038
 C         -0.6562008369       -0.3630418741       -1.9559489275
 C          0.1715050632       -1.3005709269       -2.5408010404
 C          1.5167899316       -1.3444998254       -2.2191324895
 C          2.0319177071       -0.4232679419       -1.3154491749
 C          1.1979779323        0.5242208514       -0.7364598335
 H          1.6201950489        1.2218346692       -0.0340239098
 N          3.4086208289       -0.4183554207       -1.0227498270
 S          3.9535633242       -0.1137795475        0.5456932413
 O          3.4051993518       -1.0801255634        1.4716388681
 O          3.7408029377        1.2756036352        0.8607929139
 C          5.6969698260       -0.4113628552        0.3103582798
 C          6.4538776563        0.5662449120       -0.3074745143
 C          7.8033175250        0.3341736070       -0.5202652126
 C          8.3707946512       -0.8648874853       -0.1146796184
 C          7.5992358271       -1.8356491484        0.5058727136
 C          6.2483178318       -1.6101797172        0.7204059525
 H          5.6111462161       -2.3318601809        1.2061638057
 H          8.0433733386       -2.7653715583        0.8232736500
 H          9.4214363320       -1.0430627417       -0.2813163815
 H          8.4069840488        1.0872771925       -1.0005011683
 H          5.9714761214        1.4851361271       -0.5967690815
 H          3.8728504308       -1.2409023968       -1.3859818436
 H          2.1626385529       -2.0846393061       -2.6671313366
 H         -0.2336005826       -2.0098414609       -3.2470833815
 H         -1.7100184602       -0.3343826498       -2.1989911759
 H         -1.4922582165        2.1998746363       -1.2077313907
 C         -0.4605223493        2.4134189352        0.6519663014
 C          0.2945060687        3.6483684244        0.2642375736
 C         -1.0379199601        3.7656688878        0.9395908494
 H         -1.0717826931        4.1038986838        1.9643970576
 H         -1.8863268527        4.0765931266        0.3475291395
 H          1.1834517362        3.9010634322        0.8226506207
 H          0.3520343443        3.8870090038       -0.7870382589
 H         -0.0944584676        1.8362455413        1.4952184710
