  62
        -98.93741904
 C         -1.6960488206       -1.0411876696        0.2626755406
 C         -2.9277495006       -0.9129827587        0.9547427404
 C         -3.7230549802        0.2991336113        0.6949871095
 C         -3.2369883698        1.2395362706       -0.1356629311
 C         -3.7887437294        2.5894466205       -0.5435849122
 C         -5.2535602193        2.9410642511       -0.2959364126
 C         -6.2565089695        2.1209691908       -1.1064014221
 H         -7.2626334894        2.3953191114       -0.7816710324
 H         -6.1612132293        2.3959947500       -2.1599786023
 C         -6.1005742300        0.6052163009       -1.0102434910
 H         -5.1403671100        0.3075663702       -1.4369082107
 H         -6.8800237400        0.1494534906       -1.6270739607
 C         -6.2220383503        0.0226086219        0.3968342594
 H         -6.2596704706       -1.0659730882        0.2994835002
 H         -7.1605039102        0.3484292925        0.8494627391
 C         -5.0686940703        0.3621773322        1.3576391493
 H         -5.2192560900        1.3297802726        1.8304384986
 H         -5.0565987906       -0.3911675072        2.1507177098
 H         -5.4824990594        2.8803937819        0.7639622474
 H         -5.3747061889        3.9884207309       -0.5858608333
 H         -3.1659438292        3.3326468706       -0.0335718026
 H         -3.5738891192        2.6879766096       -1.6124202422
 O         -2.0247008998        1.0966843698       -0.7423920609
 C         -1.2361516302       -0.0366379804       -0.5887482000
 O         -0.1884875601        0.0007441188       -1.2589540800
 O         -3.3484531410       -1.7786641980        1.7674099710
 C         -0.8753937710       -2.2903464997        0.5374709816
 C          0.5362640991       -1.9008314198        0.8885531715
 C          0.8381405491       -1.4816876690        2.1806767612
 C          2.1145227192       -1.0611681892        2.5063748010
 C          3.1081329693       -1.0222816202        1.5435764411
 C          2.8076455993       -1.4163833510        0.2462904414
 C          1.5372897992       -1.8792255708       -0.0688280184
 H          1.3152340892       -2.1791560315       -1.0808094082
 N          3.7885370694       -1.3272252320       -0.7545768386
 S          4.8131640098       -0.0080891924       -0.7467638195
 O          5.1831036400        0.1931009265       -2.1313684096
 O          5.9126319397       -0.2661889721        0.1529231608
 C          3.8877711902        1.3981588284       -0.1444079606
 C          4.5191235904        2.2655520788        0.7258441489
 C          3.8346156407        3.3791275193        1.1841086680
 C          2.5310719908        3.6053048294        0.7695204277
 C          1.9119332806        2.7250840190       -0.1034089417
 C          2.5931775003        1.6126916285       -0.5725329708
 H          2.0993289602        0.9201317181       -1.2353470104
 H          0.8935223307        2.8820421291       -0.4231705019
 H          1.9935800310        4.4684926599        1.1296117870
 H          4.3164669708        4.0630900397        1.8641239276
 H          5.5288040803        2.0444605787        1.0324526591
 H          3.4356043795       -1.5059740426       -1.6834543385
 H          4.1066471094       -0.6887134103        1.7769069910
 H          2.3377806992       -0.7497168385        3.5153073708
 H          0.0562993490       -1.4827955082        2.9272945111
 H         -1.3435439112       -2.7308691889        1.4320002019
 C         -0.9409326812       -3.3507018604       -0.5520508576
 C         -2.2408441213       -3.6567332705       -1.2324244675
 C         -1.1200269010       -3.0315133014       -2.0048046879
 H         -0.5953621911       -3.6403111321       -2.7272336074
 H         -1.2066365406       -1.9955289816       -2.2922507186
 H         -2.4930722916       -4.6877914106       -1.4289759668
 H         -3.0899340611       -3.0394714901       -0.9771524380
 H         -0.3054015715       -4.2003322605       -0.3200441469
