  62
        -98.94508986
 C         -1.3122990611       -1.4851727944        0.4005901894
 C         -1.8308575159       -0.4884722984        1.2650874590
 C         -2.8381110132        0.4098578288        0.6919656204
 C         -3.1843831298        0.2813584589       -0.6012257043
 C         -4.1912510442        1.1232374208       -1.3364730650
 C         -3.6222879571        2.4521441944       -1.8527768596
 C         -3.3873596498        3.5193807331       -0.7828970833
 H         -4.2882684376        3.6339081776       -0.1784311740
 H         -3.2215899918        4.4633907595       -1.3059474090
 C         -2.1819383659        3.2477726453        0.1279749536
 H         -1.6019913049        4.1672324900        0.2443115057
 H         -1.5197586209        2.5235571838       -0.3547907970
 C         -2.5450855751        2.7621329008        1.5318463771
 H         -3.0809687886        3.5534526480        2.0614960574
 H         -1.6188551602        2.5633809402        2.0767610437
 C         -3.4009324375        1.4895990260        1.5670992189
 H         -4.4243187824        1.7189730534        1.2704380972
 H         -3.4092477793        1.1130785155        2.5932496727
 H         -4.3310578978        2.8492351060       -2.5835863133
 H         -2.6819805580        2.2521246203       -2.3733914493
 H         -5.0509689617        1.3175941440       -0.6940374746
 H         -4.5228552129        0.5337259146       -2.1940589736
 O         -2.6493486119       -0.6712124292       -1.4076735348
 C         -1.6826064362       -1.5552838494       -0.9440358643
 O         -1.2573588811       -2.3345170784       -1.8174815772
 O         -1.4610914734       -0.3504540548        2.4621327979
 C         -0.2176695189       -2.3839123547        0.9465114933
 C          0.9911879808       -2.3462401759        0.0419742320
 C          1.7747300198       -3.4516449659       -0.2621580501
 C          2.8809835981       -3.3163975210       -1.0846020998
 C          3.2328491912       -2.0894598423       -1.6160292822
 C          2.4510615762       -0.9769083074       -1.3214021757
 C          1.3561211508       -1.1155192692       -0.4870050520
 H          0.7396127403       -0.2551213220       -0.2841637449
 N          2.7451911355        0.2783701042       -1.8611040586
 S          2.1148317115        1.6952897064       -1.2639917450
 O          0.6892158076        1.7545819678       -1.4728243933
 O          2.8932666226        2.7235647117       -1.9216702345
 C          2.4999814017        1.6866222573        0.4776549319
 C          3.8321589745        1.6714923876        0.8428975673
 C          4.1588422800        1.6327991776        2.1883473768
 C          3.1529994602        1.6031267936        3.1429494839
 C          1.8207344995        1.6257821952        2.7615978291
 C          1.4899936548        1.6712045240        1.4167806706
 H          0.4615769407        1.6835171638        1.0901679947
 H          1.0315762664        1.5919355146        3.4961891243
 H          3.4065598062        1.5632951292        4.1905063983
 H          5.1940124257        1.6201421018        2.4891091642
 H          4.5861897911        1.7017108400        0.0735319472
 H          3.6263652591        0.3790141124       -2.3381070300
 H          4.0888235809       -1.9925270169       -2.2656870872
 H          3.4781531014       -4.1845646774       -1.3190805157
 H          1.5128117464       -4.4223655485        0.1252523095
 H          0.0716566392       -1.8992979470        1.8957581615
 C         -0.6646084078       -3.7940092825        1.3067656803
 C         -2.1153884199       -4.1453297473        1.4417237086
 C         -1.3117747278       -4.7050980720        0.3084939916
 H         -1.0576029661       -5.7548414045        0.3305409450
 H         -1.4810136078       -4.3126021077       -0.6816623257
 H         -2.4104261815       -4.8052084089        2.2440077161
 H         -2.8414259684       -3.3766650735        1.2180673729
 H          0.0014337458       -4.2614649883        2.0253509492
