  62
        -98.93989726
 C          2.0831242921        0.6032239764        0.2708805678
 C          2.8671526960       -0.2649274925        1.0723109245
 C          3.8412746983       -1.1033717047        0.3617706596
 C          3.8907061978       -1.0551612447       -0.9818343973
 C          4.8783465934       -1.8008157152       -1.8305247563
 C          6.1414928743       -0.9629310722       -2.0761274177
 C          6.7357225556       -0.3500109042       -0.8078838142
 H          7.6360026814        0.1941203348       -1.1012091638
 H          6.0350070348        0.3844479647       -0.4039504556
 C          7.0876771513       -1.3680469585        0.2858768050
 H          7.1484933634       -2.3682731555       -0.1445433206
 H          8.0748256559       -1.1261982898        0.6852274911
 C          6.1205634861       -1.3857433720        1.4710913517
 H          5.9865934680       -0.3695537827        1.8510603397
 H          6.5735007414       -1.9763626218        2.2718099779
 C          4.7352595517       -1.9817850731        1.1907972055
 H          4.8441668110       -2.9658599155        0.7300874917
 H          4.2256957625       -2.1065863840        2.1510313499
 H          6.8870324488       -1.5974158187       -2.5586895552
 H          5.8900128164       -0.1512266104       -2.7626225260
 H          5.1397707323       -2.7357873937       -1.3384795575
 H          4.4086379849       -2.0240969654       -2.7898811021
 O          3.0621414133       -0.2772590887       -1.7222911194
 C          2.1420194241        0.5760060074       -1.1234050412
 O          1.4556834785        1.2240625750       -1.9336112119
 H         -0.3088499888       -0.6862984921        0.5681350436
 C         -0.8527524363        0.1871783913        0.2254817581
 C         -0.2620992810        1.4403799784        0.3441403355
 C         -0.9748501336        2.5475839987       -0.0954612057
 C         -2.2375881176        2.3987786782       -0.6429741831
 C         -2.8177847886        1.1497319390       -0.7608271152
 C         -2.1134120920        0.0348457294       -0.3254907876
 N         -2.7147157666       -1.2437783003       -0.4363554539
 S         -3.9076306800       -1.5368583036        0.7193492352
 O         -3.5625552641       -0.9382447600        1.9905287560
 O         -4.0989566188       -2.9709314425        0.7221395086
 C         -5.3499786998       -0.7419693280        0.0482202348
 C         -5.8522417968        0.3894854006        0.6603375790
 C         -6.9708501408        1.0025270083        0.1179728198
 C         -7.5631156754        0.4758027343       -1.0198582041
 C         -7.0470575180       -0.6628233372       -1.6211268268
 C         -5.9290147050       -1.2809439784       -1.0841621267
 H         -5.4975636034       -2.1692880340       -1.5146647395
 H         -7.5113077865       -1.0695497103       -2.5050507977
 H         -8.4329779979        0.9552611909       -1.4403467890
 H         -7.3734533769        1.8877148718        0.5834045203
 H         -5.3549616162        0.7636166899        1.5406070904
 H         -2.0391118702       -1.9945863214       -0.3895882006
 H         -3.7949540548        1.0279777639       -1.1986820053
 H         -2.7749006962        3.2689501350       -0.9874448650
 H         -0.5348271022        3.5286122621       -0.0266328027
 C          1.1031922324        1.5190178663        0.9803641416
 H          1.0170941663        1.0887006813        1.9934714936
 C          1.6063229270        2.9441301540        1.1609879925
 C          3.0722616563        3.2562619309        1.1499794973
 C          2.1969740896        3.7329718295        0.0320843549
 H          1.9742840015        4.7882990652       -0.0270177986
 H          2.2740929211        3.2470804209       -0.9276819432
 H          3.4476495822        3.9792126914        1.8586476901
 H          3.7564701542        2.4434304452        0.9528775627
 H          1.0078361236        3.4955336039        1.8797082419
 O          2.7542499899       -0.3361841270        2.3261363030
