  62
        -98.93471485
 C         -2.2606743718       -0.7959827109       -0.0835335675
 C         -3.1668621717       -0.5632571856        0.9824538919
 C         -4.1809728425        0.4868737087        0.7904093277
 C         -4.2041667955        1.1729785320       -0.3669710037
 C         -5.0841851015        2.3133341181       -0.8344829075
 C         -6.3740964334        2.6571462321       -0.0941000328
 C         -7.4690592389        1.5951752565       -0.1891113816
 H         -7.8380058758        1.5677276398       -1.2175754730
 H         -8.2976964882        1.9010725319        0.4531767894
 C         -7.0471899250        0.1767786570        0.1863124149
 H         -6.2877273205       -0.1775623795       -0.5138365030
 H         -7.9189991282       -0.4727773097        0.0697455869
 C         -6.5271006628        0.0041721469        1.6121290523
 H         -6.4166581474       -1.0682357773        1.7938522163
 H         -7.2627714541        0.3891629238        2.3208131816
 C         -5.1689243139        0.6643902932        1.9071194347
 H         -4.7354477705        0.1692034723        2.7807072764
 H         -5.2853356492        1.7171891726        2.1526890233
 H         -6.7610990275        3.5711513135       -0.5528301086
 H         -6.1606879045        2.8926232286        0.9443129614
 H         -5.3189610666        2.0973215764       -1.8816969472
 H         -4.4415687028        3.2008319582       -0.8406745358
 O         -3.3008991807        0.9279669113       -1.3597720865
 C         -2.3209846808       -0.0498661675       -1.2591077616
 O         -1.5974906800       -0.1286020141       -2.2709133513
 O         -3.1308262453       -1.2149001592        2.0599136458
 C         -1.2465082871       -1.9081210506        0.1161644318
 C          0.0823276778       -1.3846344690        0.5960710497
 C          0.7199009474       -1.9494326235        1.6942488267
 C          1.9603486788       -1.4904510307        2.1025864296
 C          2.5906716996       -0.4636328539        1.4226743820
 C          1.9593343880        0.1103441986        0.3271577313
 C          0.7141785733       -0.3468886063       -0.0754930149
 H          0.2358037740        0.0950481709       -0.9377691990
 N          2.6072674987        1.1479546497       -0.3812599850
 S          3.9886743942        0.6564841077       -1.2147578015
 O          4.1826918189        1.6369385308       -2.2603171058
 O          3.8812600457       -0.7219147142       -1.6364945801
 C          5.2872023168        0.8239619794       -0.0087901814
 C          6.0239335325       -0.2816728941        0.3679781020
 C          7.0327031928       -0.1255647591        1.3060820302
 C          7.2847317093        1.1259578292        1.8470249552
 C          6.5364295197        2.2267717537        1.4562440959
 C          5.5274116902        2.0781062289        0.5182070179
 H          4.9243672082        2.9056625797        0.1834413500
 H          6.7355954940        3.1982486316        1.8791521218
 H          8.0694112745        1.2446304304        2.5774470664
 H          7.6156024265       -0.9797053185        1.6110374281
 H          5.7868949443       -1.2351288503       -0.0759484365
 H          1.9871423168        1.6119077552       -1.0318939565
 H          3.5573739076       -0.1022942386        1.7334583521
 H          2.4427145229       -1.9380976690        2.9578074961
 H          0.2323496021       -2.7493757236        2.2320352736
 H         -1.6694489899       -2.5242405526        0.9253521410
 C         -1.1071226309       -2.8049965327       -1.1082744542
 C          0.1131600273       -2.8615359761       -1.9735325597
 C         -0.2111927769       -4.0073985287       -1.0652175296
 H         -0.5616859505       -4.9316587687       -1.4987296248
 H          0.4072280194       -4.1338788074       -0.1894441493
 H         -0.0360844155       -2.9790448979       -3.0364873743
 H          0.9586533752       -2.2359342156       -1.7297487236
 H         -2.0554990360       -2.9274362441       -1.6228466928
