  62
        -98.93763075
 C         -0.6388631703       -1.5378002929        0.4091234613
 C         -1.4070386673       -0.5425152132        1.0610955538
 C         -2.3413365995        0.2184613408        0.2212365227
 C         -2.3806157484       -0.0138848253       -1.1027964166
 C         -3.2098496538        0.7221267465       -2.1228538021
 C         -4.7392481229        0.5819978302       -1.9982808834
 C         -5.4124703321        1.6963701381       -1.1874205316
 H         -4.7743379423        2.5806797204       -1.2116354393
 H         -6.3477108957        1.9715445840       -1.6790949138
 C         -5.7545805392        1.3494930836        0.2645970355
 H         -6.6545826000        0.7307491116        0.2802066592
 H         -5.9867635331        2.2809912140        0.7850433838
 C         -4.6720013152        0.6025642356        1.0435022703
 H         -4.6400186838       -0.4401025528        0.7187565622
 H         -4.9586428855        0.5891921888        2.0968143421
 C         -3.2554287548        1.1936145991        0.9055163936
 H         -3.2834612153        2.1394215358        0.3653572190
 H         -2.8306427538        1.3688316919        1.8960087992
 H         -4.9814790011       -0.3950959192       -1.5810559735
 H         -5.1405688425        0.6080963105       -3.0126603438
 H         -2.8905252414        0.3285537084       -3.0904090899
 H         -2.9371405605        1.7802858227       -2.0941722965
 O         -1.6014827521       -0.9551624590       -1.6989747225
 C         -0.7004303524       -1.7220784142       -0.9744150555
 O         -0.0441122507       -2.5175886306       -1.6720025348
 O         -1.3022657595       -0.2842664900        2.2902317953
 C          0.3953305106       -2.2795835049        1.2402188317
 C          1.7358919636       -2.1364869820        0.5652684331
 C          2.5611474904       -3.1943810966        0.2123106165
 C          3.7472404461       -2.9553336805       -0.4616401231
 C          4.1193462531       -1.6719478337       -0.8167361153
 C          3.3002189122       -0.6055422269       -0.4619502528
 C          2.1417544214       -0.8442853436        0.2542477721
 H          1.5084265507       -0.0142409151        0.5318230851
 N          3.6249911623        0.7171812501       -0.8017140809
 S          2.3940090974        1.7748651975       -1.2205958125
 O          1.2972276935        1.1104284163       -1.8852205790
 O          3.0627036431        2.8105117277       -1.9826483251
 C          1.8610907388        2.4694834249        0.3292159632
 C          2.8176157084        2.9729738262        1.1887704523
 C          2.4089374812        3.5364249055        2.3866254560
 C          1.0591580782        3.5899362882        2.7008709236
 C          0.1110641342        3.0853012377        1.8246684392
 C          0.5137723184        2.5194142371        0.6256620846
 H         -0.1917916611        2.0972787876       -0.0747599800
 H         -0.9379982086        3.1172135474        2.0706659036
 H          0.7410430738        4.0252373487        3.6349751864
 H          3.1421707551        3.9297765800        3.0720993551
 H          3.8554229824        2.9137103933        0.9067268667
 H          4.4281916836        0.8177193916       -1.4054026493
 H          5.0271642048       -1.4940457747       -1.3730396649
 H          4.3796833102       -3.7855656532       -0.7377863598
 H          2.2649113319       -4.2060252042        0.4362062097
 H          0.4319217129       -1.7120264832        2.1859738334
 C          0.0352736800       -3.7084366702        1.6121309123
 C         -1.3955989475       -4.1506411481        1.6721711985
 C         -0.4855975263       -4.6993004661        0.6164062448
 H         -0.1646018377       -5.7272230758        0.7038378931
 H         -0.6118167621       -4.3652123072       -0.4009627437
 H         -1.7012312695       -4.7985290101        2.4799902996
 H         -2.1500844610       -3.4373837850        1.3727328542
 H          0.6883908988       -4.0993360221        2.3864888914
