  62
        -98.93018999
 C         -2.1913820093       -0.7436213998        0.1388179019
 C         -3.4881249294       -1.2173185090        0.4630738029
 C         -4.6194830293       -0.5105693303       -0.1550479387
 C         -4.3712494492        0.5374184679       -0.9609702511
 C         -5.4125803292        1.4082916965       -1.6048540431
 C         -5.9934257191        2.3906636888       -0.5676076753
 C         -7.4719369692        2.1688672096       -0.2475876849
 H         -7.7077969092        2.7653994816        0.6362219838
 H         -8.0748583491        2.5511950178       -1.0738752658
 C         -7.8899235393        0.7171224802        0.0047251684
 H         -8.0089663792        0.1984262081       -0.9476526304
 H         -8.8781731293        0.7469845813        0.4684275883
 C         -6.9518193193       -0.1052774178        0.8974947703
 H         -6.3715543193        0.5470939636        1.5503105188
 H         -7.5647285894       -0.7373591563        1.5432235917
 C         -5.9969312393       -1.0411065896        0.1331746524
 H         -5.8287947194       -1.9371296482        0.7379933044
 H         -6.4677556193       -1.3590406717       -0.8012838469
 H         -5.4044708792        2.3083679409        0.3483116649
 H         -5.8710226891        3.4133465680       -0.9274967076
 H         -6.1996493692        0.7876797956       -2.0275792117
 H         -4.9247605191        1.9533375746       -2.4132207543
 O         -3.1155603292        0.9840027572       -1.2228596921
 C         -1.9936328792        0.3661268884       -0.6827402806
 O         -0.9189117492        0.9052285176       -1.0079717718
 O         -3.6890862794       -2.1883816472        1.2403712251
 C         -1.0084421894       -1.4660980284        0.7567631735
 C         -0.0039456194       -0.4782782373        1.2951856114
 C         -0.4174149993        0.4315936450        2.2651595193
 C          0.4616564907        1.3653296361        2.7763981472
 C          1.7734402507        1.4058770850        2.3382709472
 C          2.2022285007        0.4915476328        1.3833478492
 C          1.3148855007       -0.4450305983        0.8711238413
 H          1.6629277907       -1.1238595800        0.1125180229
 N          3.5504484407        0.4829152019        0.9807930693
 S          4.0255009807        0.0691196983       -0.5822864897
 O          3.5135111508        1.0181243862       -1.5462692519
 O          3.7273321507       -1.3197479422       -0.8216967566
 C          5.7892020807        0.2723921886       -0.4015627701
 C          6.4118327308        1.3915658274       -0.9197839627
 C          7.7792993908        1.5395583977       -0.7458716829
 C          8.4963519007        0.5727455993       -0.0577028407
 C          7.8576630407       -0.5464133795        0.4559549418
 C          6.4915739507       -0.7008958299        0.2839231921
 H          5.9542025806       -1.5567254990        0.6575298540
 H          8.4187633606       -1.2974440084        0.9882937135
 H          9.5600178507        0.6906276495        0.0767069690
 H          8.2788512209        2.4065890568       -1.1471809449
 H          5.8148814609        2.1137678462       -1.4534244443
 H          4.0379047307        1.3209419425        1.2695822874
 H          2.4593169307        2.1405800259        2.7324179255
 H          0.1235903007        2.0731889078        3.5185157256
 H         -1.4458714794        0.4057462958        2.6002879593
 H         -1.4387943794       -2.0112094865        1.6143682148
 C         -0.3848370294       -2.5149126605       -0.1520407741
 C         -1.1752212394       -3.1870575729       -1.2332569526
 C         -0.0722879993       -2.2387696138       -1.5911936947
 H          0.8461720006       -2.6354498647       -2.0001467738
 H         -0.3297604293       -1.2653549246       -1.9797468069
 H         -1.0214099195       -4.2427648833       -1.3985147702
 H         -2.1946579694       -2.8635247432       -1.3858688633
 H          0.3234844505       -3.1427109893        0.3807585774
