  62
        -98.93590847
 C         -0.5245719808       -1.6431525394        0.2519204099
 C         -1.1143677504       -0.9330394191       -0.8194779402
 C         -2.3406142400       -0.1621629784       -0.5051483203
 C         -2.7630326600       -0.0897910382        0.7693702797
 C         -4.0052388697        0.5648210026        1.3137050596
 C         -5.2743516001       -0.2534882967        1.0257732596
 C         -5.3827727603       -0.7904653267       -0.3988319104
 H         -6.2722260107       -1.4242299362       -0.4480606104
 H         -4.5209424507       -1.4263744272       -0.6092155503
 C         -5.5065573997        0.2722150833       -1.4883970404
 H         -6.3841671193        0.8908823938       -1.2881715705
 H         -5.6788999299       -0.2509438867       -2.4325201304
 C         -4.2947804592        1.1897801526       -1.6702528704
 H         -4.2721330288        1.9621676526       -0.9065749005
 H         -4.4173321488        1.7044011226       -2.6278664705
 C         -2.9529838396        0.4663712718       -1.7334746803
 H         -2.1948893792        1.1602783514       -2.1168950903
 H         -3.0125593900       -0.3293279482       -2.4853172903
 H         -6.1433507298        0.3675902538        1.2494680695
 H         -5.2873550206       -1.1094326567        1.7048905796
 H         -4.1055186391        1.5742212926        0.9285329696
 H         -3.8751133997        0.6285782525        2.3958339196
 O         -2.0867948204       -0.6924347585        1.7888271498
 C         -0.9885013908       -1.4926423091        1.5611018098
 O         -0.5119684712       -2.0190239193        2.5866051799
 O         -0.6848504203       -0.9454332394       -2.0015029402
 C          0.6562140086       -2.5894739701        0.1032814000
 C          1.9471223590       -1.8919766208        0.4435332300
 C          2.8558694686       -2.4761325913        1.3181293401
 C          4.0345332690       -1.8296719519        1.6433550601
 C          4.3204893797       -0.5860076421        1.1117323501
 C          3.4162949501        0.0082705484        0.2365250600
 C          2.2400154797       -0.6478071710       -0.0987928600
 H          1.5504250800       -0.1882480106       -0.7913709801
 N          3.6919684508        1.2694480582       -0.3020331601
 S          2.5215084914        2.2665654088       -0.9282288002
 O          2.0966934012        1.7958680190       -2.2215994002
 O          3.1426323521        3.5757185885       -0.9178807202
 C          1.1419183814        2.2859008196        0.2042130398
 C         -0.0876780984        2.6280285003       -0.3202903703
 C         -1.1738777284        2.7498792209        0.5296099196
 C         -1.0163679686        2.5172741309        1.8865734397
 C          0.2221395112        2.1660892503        2.3980498897
 C          1.3168070312        2.0596222096        1.5543421298
 H          2.2874425310        1.7952489791        1.9411590599
 H          0.3403706110        1.9737370402        3.4523902798
 H         -1.8624506386        2.6073458714        2.5490507696
 H         -2.1345286982        3.0281326315        0.1282838496
 H         -0.1684406783        2.7843006203       -1.3844800003
 H          4.4634998811        1.7726683878        0.1083902500
 H          5.2339810100       -0.0727074226        1.3695177601
 H          4.7324736387       -2.2924122823        2.3240141402
 H          2.6239172381       -3.4355388211        1.7558943301
 H          0.4997755282       -3.3652042900        0.8715163800
 C          0.7060835883       -3.3010579302       -1.2407287800
 C          1.6850326585       -2.9652954608       -2.3207489300
 C          1.8351069278       -4.2399891908       -1.5490862599
 H          1.6111113973       -5.1736546707       -2.0424076399
 H          2.6436944177       -4.2976815813       -0.8360940998
 H          1.3346621786       -3.0072694606       -3.3408533200
 H          2.3906412890       -2.1682113312       -2.1445303500
 H         -0.2816910819       -3.6054303896       -1.5712743700
