  62
        -98.93913213
 C         -2.5728139819       -0.5878151195        0.2283744946
 C         -2.9090806951        0.5395215027        1.0191609793
 C         -2.9323564971        1.8364576146        0.3319601619
 C         -2.6078651690        1.8931675315       -0.9721608531
 C         -2.5493364897        3.1510910941       -1.7884876859
 C         -1.1398050470        3.7575601103       -1.7801638834
 C         -0.5338550403        3.9036138724       -0.3841725553
 H         -0.3311177478        2.9078784914        0.0191561395
 H          0.4351205516        4.3931636520       -0.5053666323
 C         -1.3919947246        4.7054287913        0.6047217555
 H         -0.7420604237        5.3934556907        1.1494132628
 H         -2.1176163069        5.3089624847        0.0581681223
 C         -2.1207048584        3.8611004449        1.6519167597
 H         -2.4949321831        4.5326797944        2.4292358175
 H         -1.4122241192        3.1753411699        2.1238775897
 C         -3.3140895599        3.0437687014        1.1414923263
 H         -3.8531230223        2.6621101571        2.0135782347
 H         -3.9881673742        3.6897137880        0.5754289543
 H         -1.1829850912        4.7345986190       -2.2657423424
 H         -0.4801055596        3.1123331923       -2.3657664084
 H         -3.2672495905        3.8674924744       -1.3932318059
 H         -2.8217864363        2.9051509487       -2.8164308775
 O         -2.2573261141        0.7986512451       -1.6924817121
 C         -2.1959276445       -0.4607252853       -1.1107563430
 O         -1.8118300770       -1.3538014790       -1.8885273423
 O         -3.1722750115        0.4637055053        2.2502745758
 C         -2.4808373681       -1.9351583402        0.9272588703
 C         -1.1290587607       -2.5319923220        0.6298533374
 C         -0.9285172908       -3.7461565969       -0.0116422925
 C          0.3515515833       -4.1700780711       -0.3275110618
 C          1.4542581385       -3.3955180417       -0.0160247946
 C          1.2625821422       -2.1910717215        0.6439257486
 C         -0.0147517976       -1.7751590496        0.9717088766
 H         -0.1561819677       -0.8183449604        1.4623957588
 N          2.3883631900       -1.3605982405        0.9195626977
 S          2.6670101671       -0.2952608808       -0.3711269035
 O          1.7593035883        0.8307991038       -0.2854718033
 O          2.6536528803       -1.0532223786       -1.5953992039
 C          4.3320184394        0.2346058588       -0.0129510189
 C          4.5687530875        1.5009534540        0.4838658704
 C          5.8711572499        1.8700899436        0.7842100220
 C          6.9067121556        0.9695911716        0.5879653422
 C          6.6524229949       -0.2997827276        0.0894451722
 C          5.3535442852       -0.6736676447       -0.2140587996
 H          5.1067288923       -1.6445663218       -0.6100709682
 H          7.4603148181       -0.9971382777       -0.0627464227
 H          7.9185762204        1.2591966096        0.8236789807
 H          6.0712531898        2.8567244499        1.1701273916
 H          3.7329503627        2.1692951617        0.6163506290
 H          2.2150784443       -0.7810852337        1.7326364938
 H          2.4515243890       -3.6965996856       -0.2912655721
 H          0.4888060033       -5.1087119389       -0.8426055569
 H         -1.7780306299       -4.3436319257       -0.2998492497
 H         -2.5132419490       -1.6830994576        2.0010290321
 C         -3.6437861920       -2.8798426817        0.6738327504
 C         -5.0061801709       -2.3487955210        0.3444575725
 C         -4.2272863563       -3.1051239435       -0.6874780287
 H         -4.5535299003       -4.1029527840       -0.9424810927
 H         -3.7965460291       -2.5622398559       -1.5135040398
 H         -5.8657199119       -2.8230104121        0.7937003716
 H         -5.1079443936       -1.2798270791        0.2237263269
 H         -3.6118228366       -3.7403702923        1.3353113640
