  62
        -98.93918777
 C         -1.5168401395       -0.5223798223       -0.6219536935
 C         -2.7551406189       -1.1668605343       -0.3775272109
 C         -3.7502792096       -0.4253007199        0.4145847634
 C         -3.4289488685        0.7924079251        0.8840302557
 C         -4.2978302385        1.7309633471        1.6753107313
 C         -5.0264777210        2.7157247714        0.7449977148
 C         -6.3613930158        2.2149119308        0.1948469795
 H         -7.0963715576        2.1938144625        1.0022248774
 H         -6.7039912828        2.9459636789       -0.5410566920
 C         -6.3199666656        0.8344400063       -0.4654452619
 H         -7.1869318804        0.7518602034       -1.1237195699
 H         -5.4295377500        0.7530909122       -1.0913408221
 C         -6.3529835412       -0.3200726995        0.5470211902
 H         -6.6190637546        0.0727324792        1.5281424110
 H         -7.1427367450       -1.0216739592        0.2703502317
 C         -5.0558354460       -1.1346981294        0.6514563461
 H         -5.0709440140       -1.9395804732       -0.0902519267
 H         -5.0156801071       -1.6186631804        1.6332972613
 H         -5.2123946521        3.6418921424        1.2927082566
 H         -4.3528078193        2.9548712216       -0.0818152557
 H         -5.0002987700        1.1785350734        2.2923812387
 H         -3.6281353489        2.2968781564        2.3266797500
 O         -2.2246800585        1.3740641520        0.6363151457
 C         -1.2416101665        0.7472487954       -0.1132682924
 O         -0.2121801295        1.4325119826       -0.2558745625
 O         -3.0255970179       -2.3177125559       -0.8163137313
 C         -0.4787275334       -1.3011722322       -1.4156444619
 C          0.4760663139       -1.9478592831       -0.4397747158
 C          0.2154002813       -3.2344439203        0.0227802635
 C          1.0553117794       -3.8354193003        0.9414877028
 C          2.1655916288       -3.1631515743        1.4199325477
 C          2.4314448879       -1.8742385145        0.9708035454
 C          1.5927869519       -1.2779577444        0.0392032291
 H          1.7937181988       -0.2722230688       -0.2861011488
 N          3.5640711810       -1.1835661209        1.4237565039
 S          3.4953624504        0.4637517831        1.7379350476
 O          4.5997209439        0.6864833794        2.6507048196
 O          2.1929261396        0.8595177195        2.2172243807
 C          3.9003519582        1.2142706158        0.1759907632
 C          2.9886491563        2.0135931065       -0.4828553145
 C          3.3521954642        2.5714641631       -1.6999070365
 C          4.6092068886        2.3257425569       -2.2294590151
 C          5.5143544052        1.5234406021       -1.5503396650
 C          5.1589600112        0.9619037621       -0.3354031782
 H          5.8326613337        0.3396264862        0.2296546741
 H          6.4914231439        1.3342305062       -1.9648278706
 H          4.8832220766        2.7619391829       -3.1772898192
 H          2.6438678954        3.1909927836       -2.2271029490
 H          2.0087552505        2.1671930199       -0.0567982305
 H          4.1005222583       -1.6697743088        2.1276448461
 H          2.8217621888       -3.6286864296        2.1399256272
 H          0.8424452597       -4.8340664833        1.2922558596
 H         -0.6647141773       -3.7499000451       -0.3341228937
 H         -1.0420578724       -2.1065325415       -1.9069272123
 C          0.2230658028       -0.4855386189       -2.4804923698
 C          1.0030680951       -1.2022780443       -3.5405390999
 C         -0.2870894402       -0.5243144073       -3.8887126977
 H         -0.2537943256        0.3834456802       -4.4721866469
 H         -1.1496484620       -1.1419296242       -4.0930380402
 H          1.9261536438       -0.7629295843       -3.8855359821
 H          1.0142371750       -2.2812379643       -3.5055876857
 H          0.6091348345        0.4598859740       -2.1239399540
