  62
        -98.94238148
 C         -0.7599501290       -1.5010442203        0.1653177199
 C         -1.4173721696       -0.4738527403        0.8774966593
 C         -2.3058279502        0.4025931086        0.0956435688
 C         -2.3994843601        0.2241451678       -1.2335157111
 C         -3.1621950707        1.0459216367       -2.2441419215
 C         -4.5628860610        1.5363362060       -1.8593323518
 C         -5.3734743403        0.5525172660       -1.0032039312
 H         -6.3511302302        0.4018755751       -1.4645465711
 H         -4.8721320897       -0.4165718537       -0.9766947006
 C         -5.5975889006        1.0505432267        0.4259567785
 H         -5.8643209213        2.1089615965        0.3904950379
 H         -6.4462957203        0.5130083864        0.8553870388
 C         -4.4155814405        0.8620699380        1.3753250286
 H         -4.6690468408        1.3403368584        2.3243638383
 H         -4.2728470698       -0.2023553318        1.5800544492
 C         -3.0705196509        1.4258250886        0.8867052282
 H         -2.4582100110        1.6305697895        1.7687284881
 H         -3.2070228715        2.3510351482        0.3313714277
 H         -4.4867376716        2.4886011164       -1.3366915624
 H         -5.0930463311        1.7327970851       -2.7929350319
 H         -3.2277806203        0.4120850061       -3.1323023012
 H         -2.5370517712        1.9034959269       -2.5140297221
 O         -1.7351497795       -0.7727799922       -1.8834927405
 C         -0.8969896089       -1.6472134113       -1.2144528000
 O         -0.3560981784       -2.5017342313       -1.9431156995
 O         -1.2553261997       -0.2817542195        2.1131700592
 C          0.2142531816       -2.4037700393        0.9016916905
 C          1.5861228315       -2.2164156887        0.3022913403
 C          2.4279582622       -3.2605472984       -0.0551783591
 C          3.6417013020       -2.9985425580       -0.6681436193
 C          4.0289369711       -1.7025439579       -0.9540776700
 C          3.2000320705       -0.6495274082       -0.5820695106
 C          2.0101571506       -0.9132123486        0.0727173295
 H          1.3709007201       -0.0919821288        0.3628214291
 N          3.5514854896        0.6826558718       -0.8437953314
 S          2.3584726589        1.8152656909       -1.1525719321
 O          1.2219744692        1.2525503197       -1.8444395417
 O          3.0553216482        2.8797425409       -1.8470141427
 C          1.8906085285        2.4093983315        0.4584165276
 C          2.8849179684        2.6622639927        1.3830265474
 C          2.5316130180        3.1671412332        2.6237190171
 C          1.1992780679        3.4198868126        2.9132046570
 C          0.2144134380        3.1678028014        1.9714213371
 C          0.5601030083        2.6543923908        0.7314876774
 H         -0.1786868815        2.4227406999       -0.0209343724
 H         -0.8215013521        3.3630667508        2.1971818170
 H          0.9239093677        3.8141526829        3.8786301868
 H          3.2944685579        3.3625580642        3.3600484270
 H          3.9089673785        2.4572405932        1.1196372275
 H          4.3610580695        0.8074568320       -1.4337982015
 H          4.9580447510       -1.5036451176       -1.4660889302
 H          4.2850499225       -3.8185088177       -0.9494159188
 H          2.1278587328       -4.2791737885        0.1281074015
 H          0.2311477414       -2.0356533086        1.9383894202
 C         -0.2628650474       -3.8399344096        0.8972008813
 C          0.1251844932       -4.7680932487        2.0084232519
 C         -1.2833943272       -4.2676024396        1.9076897516
 H         -2.0569025467       -4.9549806103        1.5995803420
 H         -1.6163649776       -3.5259844794        2.6190145911
 H          0.3174222138       -5.8035843187        1.7714066125
 H          0.7477658929       -4.3714019578        2.7958304016
 H         -0.3499657472       -4.2444400402       -0.1051307184
