  62
        -98.94443518
 C         -1.7922825494       -0.6458928997       -0.3927545104
 C         -2.8967365193       -1.3331432603        0.1666667989
 C         -4.2249122694       -0.8333663502       -0.2114159007
 C         -4.3180818295        0.2116367706       -1.0539915698
 C         -5.6045886196        0.8551457308       -1.4821235093
 C         -5.9854316697        2.0102523699       -0.5456072983
 C         -5.9288665197        1.6455887586        0.9378800814
 H         -4.8914391897        1.4449264685        1.2152307213
 H         -6.2471612699        2.5254641981        1.5011960022
 C         -6.8004562796        0.4441588282        1.3297511403
 H         -7.3406506197        0.6882910073        2.2468920305
 H         -7.5454499196        0.2588196188        0.5551748102
 C         -6.0208584795       -0.8437885420        1.6014853892
 H         -6.6990975194       -1.5574776725        2.0766588386
 H         -5.2128537995       -0.6400038725        2.3085302694
 C         -5.4209502493       -1.5339601108        0.3698276387
 H         -5.0674390192       -2.5210787710        0.6815692878
 H         -6.1942651493       -1.6700239803       -0.3887967115
 H         -6.9919984498        2.3454752300       -0.8023397180
 H         -5.2957944598        2.8393078301       -0.7209841975
 H         -6.3940989195        0.1062456707       -1.4927768399
 H         -5.4733137096        1.2463646717       -2.4924313489
 O         -3.2354760596        0.8390773811       -1.5801304092
 C         -1.9463317995        0.4388382010       -1.2560122995
 O         -1.0511268796        1.1152136416       -1.7966489689
 O         -2.7764798393       -2.3152374810        0.9471356081
 C         -0.3895094594       -1.1071009199       -0.0338627708
 C          0.3391107705        0.0138072096        0.6625354302
 C         -0.1803931396        0.4876876085        1.8660244206
 C          0.4193447802        1.5381003180        2.5309691615
 C          1.5562930402        2.1348041986        2.0137163721
 C          2.0837376803        1.6690700197        0.8154843017
 C          1.4827606204        0.6059797502        0.1519296007
 H          1.8995414605        0.2800861511       -0.7858576095
 N          3.2245443802        2.2676884803        0.2705180322
 S          4.2913406403        1.4451934613       -0.7024412184
 O          5.5060644103        2.2311340014       -0.6338627577
 O          3.7488702204        1.2509537224       -2.0236193186
 C          4.5653555205       -0.1381599494        0.0759186502
 C          4.6956617705       -0.2109539406        1.4486053301
 C          4.9401921506       -1.4428242710        2.0338996391
 C          5.0586665208       -2.5746917103        1.2422224881
 C          4.9343289508       -2.4844593091       -0.1350175318
 C          4.6843178607       -1.2555695187       -0.7247514408
 H          4.5734026207       -1.1388781577       -1.7910776807
 H          5.0279611409       -3.3649506386       -0.7503237426
 H          5.2494471409       -3.5322516907        1.7004236273
 H          5.0374567606       -1.5156648820        3.1051275090
 H          4.6048557504        0.6825608589        2.0439163209
 H          3.6696109401        2.9733813299        0.8365319129
 H          2.0234998801        2.9625911482        2.5249817128
 H          0.0021611102        1.8969121571        3.4597564418
 H         -1.0712782196        0.0224830380        2.2653429202
 H         -0.5306797693       -1.9247891305        0.6878662585
 C          0.3248426707       -1.6534929987       -1.2501997113
 C          1.4407943008       -2.6385806287       -1.0798398621
 C          0.1189093909       -3.0904890584       -1.6218588425
 H          0.0488325410       -3.3471464975       -2.6682679027
 H         -0.5237286690       -3.6796427891       -0.9841176731
 H          2.2793034509       -2.5827714980       -1.7564592720
 H          1.7052242708       -2.9249206796       -0.0732634323
 H          0.3963432807       -0.9341606680       -2.0586756006
