  62
        -98.94340657
 C         -1.8643455801       -0.2585185313       -0.2303462808
 C         -2.9715988799       -0.4682481221       -1.0857438909
 C         -4.2825566900       -0.5586017919       -0.4296370010
 C         -4.3547709103       -0.4570377010        0.9104808089
 C         -5.6290804104       -0.4831685506        1.7029410187
 C         -6.1921957007        0.9314673094        1.8985093076
 C         -6.2722653107        1.7483214985        0.6088782370
 H         -6.7111781409        2.7155136986        0.8631895462
 H         -5.2602832406        1.9400722784        0.2450762270
 C         -7.0952135503        1.0918126775       -0.5083280427
 H         -7.7363229503        0.3153034977       -0.0894483923
 H         -7.7481292704        1.8461784271       -0.9524148834
 C         -6.2608518300        0.5001017168       -1.6458538321
 H         -5.5510512301        1.2483963467       -2.0074622126
 H         -6.9342667898        0.2616362361       -2.4735074721
 C         -5.4828485399       -0.7776933128       -1.3071900011
 H         -6.1575000998       -1.5122006826       -0.8623935407
 H         -5.0967936196       -1.1896042934       -2.2444229707
 H         -7.1864356308        0.8486253195        2.3413055974
 H         -5.5496360510        1.4652158100        2.6023935673
 H         -6.3575737802       -1.1073958511        1.1890324390
 H         -5.4165984605       -0.9185020999        2.6808116190
 O         -3.2667657305       -0.2717165002        1.7007048589
 C         -1.9957701704       -0.1618551303        1.1552351791
 O         -1.0900977206        0.0126967604        1.9912032691
 H          2.1901384998        0.0154998095       -0.1822519503
 C          1.7761374500       -0.9662119404       -0.0224159097
 C          0.4399384401       -1.2155156809       -0.2966113298
 C         -0.0508278897       -2.5028631808       -0.0935690789
 C          0.7658186804       -3.5030563303        0.3956608619
 C          2.0980708803       -3.2489416899        0.6700101020
 C          2.6046298501       -1.9746185799        0.4519445212
 N          3.9502288900       -1.6822862195        0.7203621012
 S          4.8237535600       -0.7449056601       -0.3560435793
 O          4.3643851202       -0.9236278712       -1.7134291893
 O          6.2067273900       -1.0921611097       -0.1041013488
 C          4.5570457896        0.9347650002        0.1693535794
 C          4.4797070695        1.9277957395       -0.7868042413
 C          4.3273379092        3.2436538598       -0.3776618623
 C          4.2549828689        3.5414509607        0.9742203775
 C          4.3355782489        2.5322174214        1.9219007082
 C          4.4930010693        1.2155244112        1.5197884692
 H          4.5563777893        0.4079120117        2.2296892498
 H          4.2756991587        2.7671668922        2.9724509481
 H          4.1336355587        4.5654280309        1.2908414068
 H          4.2644233892        4.0292451193       -1.1140471328
 H          4.5277576498        1.6505529088       -1.8278007311
 H          4.4941196901       -2.4629619391        1.0583229018
 H          2.7394591404       -4.0301602295        1.0491782127
 H          0.3650013305       -4.4925580003        0.5574354626
 H         -1.0885569897       -2.7087787812       -0.3183350890
 C         -0.4788937101       -0.1472974915       -0.8371240207
 H         -0.6144488898       -0.3343872323       -1.9137559706
 C          0.0583740896        1.2572598988       -0.6522851816
 C          0.9707857897        1.8668549382       -1.6728061519
 C         -0.4439269904        2.3452783180       -1.5520007825
 H         -0.6246592107        3.3222324183       -1.1297830932
 H         -1.1479885302        2.0643376773       -2.3217979624
 H          1.7612257795        2.5168778786       -1.3291048822
 H          1.2359424600        1.2662894377       -2.5302694814
 H          0.2201922294        1.5035388996        0.3913181683
 O         -2.8669769497       -0.5815432930       -2.3375948108
