  62
        -98.93433815
 C         -2.3918183171       -1.1872135062        0.0946785318
 C         -3.3086520571       -0.5503878926        0.9658945161
 C         -4.1980897192        0.4625731591        0.3706929727
 C         -4.0685314229        0.7538553969       -0.9351026655
 C         -4.8301098644        1.7807366301       -1.7269704887
 C         -4.0691374536        3.1169892740       -1.7607392577
 C         -4.3574850791        4.0531637725       -0.5876971072
 H         -3.6645658632        4.8942414940       -0.6648548989
 H         -5.3690304755        4.4522915342       -0.6870287191
 C         -4.2150145768        3.4251770955        0.8012992704
 H         -3.3169333024        2.8051150343        0.8346091399
 H         -4.0748253669        4.2332894177        1.5220460007
 C         -5.4386845956        2.5949994724        1.2170750867
 H         -6.2581932538        2.7985224822        0.5282155021
 H         -5.7765129308        2.9181079957        2.2040011742
 C         -5.2021340594        1.0803813969        1.3054205692
 H         -4.8393027525        0.8270979331        2.3068274295
 H         -6.1591168387        0.5622308108        1.1812589968
 H         -2.9999990600        2.8923601013       -1.7992438729
 H         -4.3252995427        3.6426788040       -2.6827113927
 H         -4.9008166043        1.3958878476       -2.7464273965
 H         -5.8329222928        1.9082393600       -1.3303483661
 O         -3.1373957358        0.1564894410       -1.7269918645
 C         -2.2742412898       -0.8167414075       -1.2458107571
 O         -1.4756112524       -1.2470956913       -2.0965580981
 O         -3.3750237667       -0.8100149706        2.1985827373
 C         -1.4714492019       -2.2397644289        0.6851457463
 C         -0.0445560988       -1.9836289609        0.2675051491
 C          0.7453742999       -2.9125677745       -0.3953028787
 C          2.0507201346       -2.6042250820       -0.7376412292
 C          2.5951107853       -1.3717260703       -0.4301458575
 C          1.8158918610       -0.4353201503        0.2372522562
 C          0.5125456515       -0.7505137988        0.5866785060
 H         -0.0949786895       -0.0193374402        1.1079146129
 N          2.3577600805        0.8271155432        0.5408355320
 S          3.8224876923        0.8772229027        1.3614703832
 O          3.9963391886       -0.2853457113        2.2014291661
 O          3.8368142966        2.1603567634        2.0298983431
 C          5.0434211488        0.8839987191        0.0661811613
 C          6.0297355663       -0.0825142607        0.0441382391
 C          6.9742781571       -0.0524519397       -0.9701017463
 C          6.9163922306        0.9385620763       -1.9379500272
 C          5.9209779951        1.9037523788       -1.8996642522
 C          4.9744246298        1.8801001516       -0.8879620995
 H          4.1873516282        2.6125799541       -0.8203516461
 H          5.8789386026        2.6726933841       -2.6542096596
 H          7.6513468916        0.9592935391       -2.7270501260
 H          7.7491343885       -0.8014200568       -1.0015616524
 H          6.0310951500       -0.8369431881        0.8146020581
 H          1.6956239402        1.4616402689        0.9632605000
 H          3.6081115970       -1.1262277862       -0.7039602091
 H          2.6507631468       -3.3337329111       -1.2598299877
 H          0.3339478906       -3.8714117939       -0.6635548712
 H         -1.5337180568       -2.0741095600        1.7745615451
 C         -1.9246730614       -3.6719889474        0.4443122597
 C         -3.3700368090       -3.9987048155        0.2196037799
 C         -2.3846412902       -4.1544675523       -0.8975892734
 H         -2.1125447980       -5.1543917244       -1.2025997050
 H         -2.4017866214       -3.4403821227       -1.7055435185
 H         -3.7721514505       -4.8875416235        0.6822112249
 H         -4.0689623490       -3.1759563317        0.1748617520
 H         -1.3645088310       -4.3782505250        1.0497048630
