  62
        -98.94146097
 C         -1.7521238501       -0.8856343903        0.2146287297
 C         -1.9778644198        0.4945917497       -0.0357339106
 C         -3.2764403498        0.8528096497       -0.6188550508
 C         -4.1551436599       -0.1237969602       -0.9078296707
 C         -5.5329634098        0.0943744198       -1.4610936408
 C         -6.5685024299        0.2274370102       -0.3358621310
 C         -6.1665003798        1.2166111404        0.7581065989
 H         -6.9849837399        1.2530381007        1.4803633588
 H         -5.2910819199        0.8290349204        1.2841843490
 C         -5.8665116196        2.6346887002        0.2524658486
 H         -6.2933678795        2.7714464201       -0.7417482815
 H         -6.3537428196        3.3527100204        0.9155723484
 C         -4.3800755395        2.9955473600        0.2200604986
 H         -3.9278897297        2.7698327002        1.1890391387
 H         -4.2963454594        4.0741699300        0.0629489984
 C         -3.5489232195        2.3090675097       -0.8714468812
 H         -4.0303317194        2.4475375995       -1.8416729412
 H         -2.5698324695        2.7957588995       -0.8999183312
 H         -7.5191453398        0.5343305202       -0.7758094711
 H         -6.7079814600       -0.7536439597        0.1240744793
 H         -5.5332074496        0.9911726797       -2.0776187410
 H         -5.7935844498       -0.7636490003       -2.0830464807
 O         -3.8971133200       -1.4347106702       -0.6812015404
 C         -2.7025166202       -1.8536090303       -0.1112367102
 O         -2.6368096003       -3.0900084002        0.0370840501
 H          1.9381559000       -0.0993380708        0.2307865999
 C          1.7704195700       -0.9959858709       -0.3459897600
 C          0.5903898799       -1.7064457607       -0.1816700699
 C          0.3814563198       -2.8475103309       -0.9490562797
 C          1.3388717298       -3.2618786212       -1.8564359395
 C          2.5266248999       -2.5657714014       -1.9985647395
 C          2.7452796400       -1.4250398412       -1.2357411398
 N          3.9328991401       -0.6923051014       -1.3610352698
 S          4.6431662801        0.0050701388       -0.0155166899
 O          6.0360095501        0.1526585285       -0.3804624798
 O          4.3762416499       -0.7557928709        1.1822315402
 C          3.9025405903        1.6192924489        0.0913968396
 C          3.9403046405        2.4305188387       -1.0252623205
 C          3.3837408507        3.6968001187       -0.9507215309
 C          2.8044913906        4.1290770691        0.2327789390
 C          2.7786872704        3.3045150793        1.3464261592
 C          3.3334526902        2.0365068392        1.2776522295
 H          3.3298728901        1.3612625594        2.1192778997
 H          2.3246361604        3.6409428996        2.2647519491
 H          2.3687603707        5.1141643992        0.2886122587
 H          3.4006073008        4.3423205486       -1.8141367410
 H          4.4021520605        2.0607074184       -1.9255600704
 H          4.6169467401       -1.0903968916       -1.9875247197
 H          3.2793534099       -2.9015261516       -2.6958068494
 H          1.1647313997       -4.1463802713       -2.4507001093
 H         -0.5376279903       -3.4002255307       -0.8302220496
 C         -0.4174996402       -1.2440230604        0.8436854299
 H         -0.0407212201       -0.3028846903        1.2673121797
 C         -0.5165733004       -2.2631353201        1.9635091701
 C          0.6524601895       -2.4288207400        2.8865810203
 C         -0.6106167004       -1.7919779698        3.3820237400
 H         -1.2325306306       -2.3464727095        4.0687904201
 H         -0.6096413403       -0.7259230697        3.5570230198
 H          0.8967762693       -3.4217245300        3.2322444105
 H          1.5169836696       -1.8023580802        2.7200000302
 H         -1.0733498305       -3.1502689601        1.6917610703
 O         -1.1285364098        1.3880234096        0.2252094393
