  62
        -98.94101046
 C          2.0519797445        1.0568954266        0.0596594101
 C          2.5646960224        0.2590439571        1.1159575165
 C          3.2791338268       -0.9631454299        0.7298151741
 C          3.3773837285       -1.2786029665       -0.5739879801
 C          4.1126574258       -2.4687624331       -1.1170698018
 C          5.5747095812       -2.1240783760       -1.4339929355
 C          6.2992011331       -1.4041465216       -0.2965701985
 H          7.3290219504       -1.2391480010       -0.6203362500
 H          5.8455722682       -0.4209895671       -0.1519669864
 C          6.2972122630       -2.1630469209        1.0377586766
 H          7.3021084898       -2.1256339165        1.4633107358
 H          6.0566204455       -3.2128104543        0.8663775550
 C          5.3460267338       -1.5914067749        2.0907272982
 H          5.5809186772       -2.0587408197        3.0505722630
 H          5.5201785449       -0.5179156696        2.1977479462
 C          3.8505151015       -1.8124174880        1.8301923525
 H          3.6619267746       -2.8702923111        1.6352039435
 H          3.3085959492       -1.5290906624        2.7372000254
 H          5.5943168574       -1.4795027778       -2.3158422564
 H          6.1016168716       -3.0485204983       -1.6770385111
 H          4.0672211802       -3.2772566900       -0.3898148966
 H          3.6151818959       -2.7904781841       -2.0338125574
 O          2.8483395009       -0.5104278008       -1.5581018534
 C          2.1714479038        0.6700251055       -1.2749491670
 O          1.7442058224        1.2508479241       -2.2919401736
 H         -0.3398017507        1.2353730680       -1.3625735910
 C         -0.8535531586        1.4473721765       -0.4357626237
 C         -0.1545026938        2.0312677112        0.6127088782
 C         -0.8310659117        2.2875446092        1.7987578502
 C         -2.1714989008        1.9662226178        1.9294848508
 C         -2.8607125170        1.3768003451        0.8843501468
 C         -2.1910356404        1.1141446370       -0.3033319487
 N         -2.8810818847        0.4720664961       -1.3634093515
 S         -3.0651080947       -1.1858976749       -1.1039404146
 O         -1.9276461340       -1.7369266026       -0.3988554120
 O         -3.3518853662       -1.7553773992       -2.4024912487
 C         -4.5196396622       -1.2739417942       -0.0832455195
 C         -4.4090872156       -1.6572989336        1.2387341738
 C         -5.5532450302       -1.6989357998        2.0205007697
 C         -6.7790520337       -1.3578617047        1.4692120925
 C         -6.8727679264       -0.9766535213        0.1386893731
 C         -5.7332691164       -0.9330980496       -0.6485064822
 H         -5.7578287040       -0.6483108749       -1.6871125235
 H         -7.8277649327       -0.7125999010       -0.2860389343
 H         -7.6668180530       -1.3893932621        2.0808893916
 H         -5.4821547848       -1.9945780257        3.0548707088
 H         -3.4334767160       -1.9082123956        1.6236396096
 H         -2.4068242055        0.5942052274       -2.2492439611
 H         -3.9034192906        1.1212312114        0.9790884393
 H         -2.6834209696        2.1711337250        2.8570182497
 H         -0.2930706958        2.7233605106        2.6277831541
 C          1.3166921880        2.3235628746        0.4666444593
 H          1.7067781290        2.5611576152        1.4688730625
 C          1.6140066949        3.5143746644       -0.4338644324
 C          0.5903481035        4.1759955757       -1.3029392623
 C          1.0834591406        4.8702769195       -0.0714087275
 H          1.7309290768        5.7268765113       -0.1801731151
 H          0.4095049092        4.9268643594        0.7701280736
 H         -0.4155650372        3.7866040674       -1.2999947120
 H          0.9137536489        4.5322259994       -2.2691998248
 H          2.6228836766        3.4775262607       -0.8319764636
 O          2.4336524842        0.5656112340        2.3310686438
