  62
        -98.94967499
 C         -1.5002326076       -1.0593866449        0.0430164138
 C         -2.5204473322       -0.6373544606        0.9257263600
 C         -3.0561568912        0.7090877098        0.6910743916
 C         -2.5342256906        1.4621051489       -0.2948619759
 C         -3.0112258915        2.8358298568       -0.6663037919
 C         -4.1014546642        2.7764306174       -1.7455893365
 C         -5.2236179939        1.7859043649       -1.4348295354
 H         -4.8161742961        0.7724826751       -1.4446117829
 H         -5.9487819272        1.8501052779       -2.2488158286
 C         -5.9342406672        2.0319964352       -0.0967106726
 H         -7.0120506147        1.9504293036       -0.2519815706
 H         -5.7321560199        3.0463630461        0.2491128679
 C         -5.5676232576        1.0390829936        1.0077933910
 H         -5.6791909738        0.0180257361        0.6344583080
 H         -6.2773473900        1.1668432450        1.8294623197
 C         -4.1581693814        1.1843171681        1.5960210412
 H         -4.1034443135        0.5546288940        2.4892860994
 H         -3.9880754039        2.2200231165        1.8985428621
 H         -3.6371260904        2.4836053288       -2.6899841054
 H         -4.5197099425        3.7771720498       -1.8679899108
 H         -2.1584373262        3.4006402437       -1.0474167041
 H         -3.3909779497        3.3340494302        0.2237940055
 O         -1.5361248276        1.0333568622       -1.1066196492
 C         -0.9905845036       -0.2296194383       -0.9548311110
 O         -0.0778707108       -0.4976393102       -1.7607210110
 O         -2.9596602758       -1.3535078446        1.8678908769
 C         -0.8908115906       -2.4373306625        0.2196024123
 C          0.6032448262       -2.3360361223        0.4047987231
 C          1.4984384765       -3.2502328194       -0.1378343798
 C          2.8610503189       -3.1011698275        0.0554132664
 C          3.3610448965       -2.0288768390        0.7711945169
 C          2.4731647180       -1.1145170643        1.3249868304
 C          1.1090137460       -1.2885399383        1.1640369236
 H          0.4359420129       -0.5668586106        1.6041223325
 N          2.9260906918        0.0169111687        2.0393341422
 S          2.6262667593        1.5015148253        1.3153611069
 O          3.2646520509        2.4750551796        2.1763169900
 O          1.2122435559        1.6690283801        1.1021866901
 C          3.5149720614        1.4080541058       -0.2290027274
 C          2.9462771333        0.7571280114       -1.3052503744
 C          3.6933071198        0.6174736580       -2.4658762947
 C          4.9825410949        1.1221858883       -2.5299621496
 C          5.5377188409        1.7739628068       -1.4386410656
 C          4.8007890062        1.9137565826       -0.2744001230
 H          5.1877026939        2.4147059110        0.5984813813
 H          6.5396078791        2.1687660225       -1.4904857796
 H          5.5562463077        1.0074900316       -3.4361152356
 H          3.2535064138        0.1100288762       -3.3094877713
 H          1.9384900486        0.3756426403       -1.2400605896
 H          3.9058173125       -0.0297726019        2.2870985757
 H          4.4246912814       -1.8960482150        0.9004087777
 H          3.5428557982       -3.8194997980       -0.3732364795
 H          1.1278303438       -4.0791366103       -0.7184932074
 H         -1.3287813680       -2.8356212263        1.1477150273
 C         -1.2895770189       -3.3379135126       -0.9326765290
 C         -1.4896687176       -4.8078490783       -0.7178246429
 C         -2.6715529137       -3.9169283460       -0.9502478691
 H         -3.1927196190       -3.9811931052       -1.8936520901
 H         -3.3132810539       -3.6858839650       -0.1123696487
 H         -1.2016456317       -5.4880115891       -1.5051980548
 H         -1.3373097564       -5.1933841143        0.2789227730
 H         -0.8733776623       -3.0079719456       -1.8782005577
