  62
        -98.93878425
 C          1.9518990127        1.3109671044       -0.0493195754
 C          2.5995071346        0.6675365600        1.0282720371
 C          3.8082803638       -0.1180039250        0.7114455326
 C          4.2097459998       -0.1954443565       -0.5712861270
 C          5.3777018057       -0.9586221346       -1.1375204626
 C          5.1101764110       -2.4694384185       -1.2307191268
 C          4.4461145225       -3.0811091683        0.0000860471
 H          3.4979084239       -2.5725984463        0.1851229048
 H          4.2131261337       -4.1238276661       -0.2319670034
 C          5.2905997112       -3.0626370857        1.2721407721
 H          4.7346576120       -3.6096991810        2.0380589797
 H          6.2223370964       -3.6028106581        1.0903526605
 C          5.6311193285       -1.6789700056        1.8301108527
 H          6.4349958191       -1.2147218538        1.2653291568
 H          6.0093902144       -1.8229935826        2.8464215331
 C          4.4449775181       -0.7259284886        1.9383869386
 H          4.7371872790        0.1227911587        2.5686150592
 H          3.6351494223       -1.2231111516        2.4848449297
 H          6.0565542295       -2.9764043543       -1.4262676622
 H          4.4511451802       -2.6437453140       -2.0849134386
 H          5.5435382132       -0.5731810054       -2.1459235456
 H          6.2724681062       -0.7586994382       -0.5556091576
 O          3.5335284145        0.4179008636       -1.5844779183
 C          2.3994416209        1.1776681675       -1.3632143930
 O          1.8974107533        1.6684962095       -2.3913392620
 O          2.1823107880        0.7341536911        2.2175863856
 C          0.7130021797        2.1440857166        0.2258742370
 C         -0.4767375786        1.5352071385       -0.4743420144
 C         -1.3268298910        2.2455826085       -1.3104752234
 C         -2.3892333115        1.6112105685       -1.9326806681
 C         -2.6349654409        0.2670418515       -1.7258258781
 C         -1.8041812192       -0.4478896957       -0.8709929801
 C         -0.7407922141        0.1885786102       -0.2508229741
 H         -0.0908440896       -0.3709015706        0.4107747096
 N         -2.0593521619       -1.8085573300       -0.6334038497
 S         -3.6443297129       -2.2766266217       -0.3697597183
 O         -3.5565429129       -3.4536973797        0.4661698269
 O         -4.3150904142       -2.4539747091       -1.6337077363
 C         -4.3954666793       -0.9272921611        0.5246642694
 C         -3.8331317135       -0.5478197646        1.7274200269
 C         -4.3874685902        0.5160288447        2.4201430227
 C         -5.4900480520        1.1781563889        1.9017863670
 C         -6.0470576727        0.7808384400        0.6964217350
 C         -5.4949039939       -0.2809176732       -0.0022285986
 H         -5.8928004766       -0.6203366334       -0.9447116250
 H         -6.9056494817        1.2960075213        0.2969915347
 H         -5.9167570299        2.0080782978        2.4424837637
 H         -3.9547776589        0.8257934380        3.3579694788
 H         -2.9780482080       -1.0842794228        2.1070427193
 H         -1.4316884966       -2.2366718196        0.0305604697
 H         -3.4461871542       -0.2438471800       -2.2186196606
 H         -3.0334227286        2.1723193877       -2.5920291959
 H         -1.1516671369        3.2936469641       -1.4869611306
 H          0.5461914087        2.0656068515        1.3104361119
 C          0.9560017884        3.5959143503       -0.1255875517
 C          0.1906649572        4.6773043299        0.5750268891
 C          1.6452653607        4.4757013282        0.8725253360
 H          2.3542343786        5.2060609696        0.5124154963
 H          1.9197453768        4.0327816875        1.8189041495
 H         -0.0992613578        5.5516596454        0.0123901687
 H         -0.5254197067        4.3764192504        1.3243978328
 H          1.2063187230        3.7361031012       -1.1709420388
