  62
        -98.93633104
 C         -2.0435119517       -1.2810423471       -0.1165212214
 C         -2.5184552501       -0.1498413769       -0.8213965804
 C         -3.9309367177        0.1954189405       -0.6005658196
 C         -4.6845499598       -0.5621093004        0.2163873210
 C         -6.1529983257       -0.3921027054        0.5041990428
 C         -6.5594678247        0.8942705008        1.2485936997
 C         -6.9835730196        2.0480535256        0.3315770058
 H         -7.3277561594        1.6345101187       -0.6172142579
 H         -7.8393360909        2.5566509588        0.7802043392
 C         -5.9180334621        3.1161585105        0.0671540420
 H         -5.8479485791        3.7733258071        0.9370202350
 H         -6.2546674533        3.7231330510       -0.7761614808
 C         -4.5105802288        2.5967243978       -0.2275717607
 H         -3.9061904065        3.4325823364       -0.5858939612
 H         -4.0427246883        2.2556723005        0.6991986690
 C         -4.4503716495        1.4450032382       -1.2497751538
 H         -5.4304524141        1.2705622379       -1.6914866236
 H         -3.7505592860        1.6946031572       -2.0499328400
 H         -7.4078524490        0.6361384501        1.8844286650
 H         -5.7478272054        1.2073898050        1.9048170236
 H         -6.4312925228       -1.2566506110        1.1103433303
 H         -6.7033376908       -0.4540166032       -0.4374097377
 O         -4.1867041645       -1.6462080174        0.8723652677
 C         -2.8606736995       -2.0197802595        0.7397852257
 O         -2.5343065976       -3.0123176876        1.4214624554
 O         -1.8096663986        0.5329833901       -1.6061342045
 C         -0.5973967203       -1.7241386798       -0.2609379683
 C          0.3114005739       -0.6143313727        0.2075095747
 C          0.2374956469       -0.2140308477        1.5394240329
 C          1.0362204468        0.8065344816        2.0179003059
 C          1.9266941267        1.4529940864        1.1779219182
 C          2.0095761291        1.0602045420       -0.1503723807
 C          1.2141661452        0.0247005713       -0.6263451845
 H          1.2882664654       -0.2627251072       -1.6630136260
 N          2.9155469635        1.7098513351       -1.0077454296
 S          4.5021009346        1.8545423046       -0.4961509195
 O          4.6038547710        2.9080823837        0.4820072914
 O          5.2771102391        2.0309141588       -1.7035393145
 C          4.8683690460        0.2811700418        0.2597870936
 C          4.9656745934        0.1796147734        1.6323208512
 C          5.1834411940       -1.0669588368        2.1974661334
 C          5.2955616410       -2.1841403138        1.3847921769
 C          5.1995160418       -2.0649787717        0.0065155582
 C          4.9798626371       -0.8219715031       -0.5635785600
 H          4.9071208162       -0.6902295650       -1.6311654432
 H          5.2900922665       -2.9354499816       -0.6232755778
 H          5.4607476185       -3.1539024142        1.8272510538
 H          5.2607238017       -1.1627984993        3.2685457732
 H          4.8754407961        1.0727420294        2.2282959488
 H          2.8701251935        1.3906161725       -1.9642499044
 H          2.5500080391        2.2594407265        1.5286485514
 H          0.9637027188        1.1064759141        3.0524075634
 H         -0.4637500723       -0.7152527967        2.1931460497
 H         -0.4738449633       -2.5743148416        0.4243425255
 C         -0.3220857709       -2.1940294315       -1.6735163553
 C          0.8331123328       -3.1105854111       -1.9405372669
 C         -0.5705477027       -3.6294167959       -2.0219787938
 H         -0.9817889305       -3.8594967263       -2.9934780698
 H         -0.9260237193       -4.2777314130       -1.2343686076
 H          1.3875874350       -2.9906050078       -2.8590312894
 H          1.4346882035       -3.4105416343       -1.0960742006
 H         -0.5731520035       -1.4510403705       -2.4215511040
