  62
        -98.93553467
 C          2.3673773142        1.3994154891        0.0316110016
 C          3.0415743970        0.6601658340        1.0359778863
 C          3.8781135466       -0.4696189013        0.5975587081
 C          3.9493462132       -0.7629721829       -0.7138501150
 C          4.7373235720       -1.8176628163       -1.4624442130
 C          5.4120983123       -2.9635286218       -0.7136620212
 C          4.4481884639       -3.9669115821       -0.0805505059
 H          3.9610818435       -4.5316350361       -0.8796270318
 H          5.0306377295       -4.6712576610        0.5172437730
 C          3.3475859710       -3.3677027261        0.7918136633
 H          2.7266915266       -4.1897314770        1.1589448740
 H          2.6999441458       -2.7303633589        0.1849837450
 C          3.8316484383       -2.5748813803        2.0042289463
 H          4.4955690591       -3.1965712267        2.6080626240
 H          2.9532839968       -2.3347222216        2.6095995323
 C          4.5512546995       -1.2531400157        1.6873874350
 H          4.5126333477       -0.6257771963        2.5826406282
 H          5.5989469119       -1.4209000674        1.4499413587
 H          6.0136582157       -3.5045478869       -1.4491310288
 H          6.1003611827       -2.5725563674        0.0297582942
 H          4.0487935325       -2.2318038357       -2.2062459989
 H          5.5034324452       -1.2712131893       -2.0236799485
 O          3.2745975544       -0.0300797026       -1.6460987446
 C          2.4648511737        1.0462628479       -1.3126006242
 O          1.9135540703        1.5737958644       -2.2981403317
 O          2.9605448229        0.9467633638        2.2602827009
 C          1.5137508561        2.5659779223        0.5005890222
 C          0.0894679357        2.1159466761        0.7014212996
 C         -0.5489706206        2.2609636439        1.9267433096
 C         -1.8432060348        1.8024217506        2.1049531009
 C         -2.5242984267        1.1904265743        1.0679159967
 C         -1.8926763308        1.0373774161       -0.1595237372
 C         -0.5991654862        1.5016698684       -0.3366466205
 H         -0.1108638474        1.3757744731       -1.2925382048
 N         -2.5755228451        0.3996909148       -1.2192779180
 S         -2.9249986230       -1.2280570445       -0.9582350637
 O         -1.9551747733       -1.8380001898       -0.0757377926
 O         -3.0550593766       -1.8129695320       -2.2750560538
 C         -4.5244308020       -1.1887551004       -0.1775620289
 C         -4.6803809500       -1.6870166665        1.1009329643
 C         -5.9350876046       -1.6406398623        1.6888832277
 C         -7.0045964137       -1.0997188255        0.9916660211
 C         -6.8314062383       -0.6058556031       -0.2929858183
 C         -5.5803092635       -0.6502795184       -0.8870305145
 H         -5.4017135655       -0.2832443230       -1.8838945430
 H         -7.6655557866       -0.1865527159       -0.8320117435
 H         -7.9791624517       -1.0631889871        1.4522660561
 H         -6.0714891407       -2.0244887902        2.6871188003
 H         -3.8176935885       -2.0922285752        1.6052753716
 H         -2.0868010292        0.4917801434       -2.1000280706
 H         -3.5312237595        0.8295643353        1.2005296165
 H         -2.3257823353        1.9199838579        3.0630459856
 H         -0.0162988725        2.7185687221        2.7474185893
 H          1.9208011822        2.8252620961        1.4905157563
 C          1.6439657571        3.7984075869       -0.3842156106
 C          0.5171791488        4.3731607427       -1.1849104175
 C          1.0030303938        5.0877373564        0.0378335862
 H          1.5575696542        6.0060313928       -0.0806266332
 H          0.3712013285        5.0603860704        0.9128537795
 H          0.7543201359        4.7792348353       -2.1565553414
 H         -0.4448256566        3.8873954326       -1.1419180338
 H          2.6298349548        3.8702198823       -0.8323203390
