  62
        -98.94581244
 C         -1.7372587427       -1.4435719378       -0.4511749086
 C         -1.4987209937       -0.1937414959       -1.0735668983
 C         -2.6274033889        0.7478347720       -1.0712929086
 C         -3.8091657063        0.3876835729       -0.5413535132
 C         -5.0620462802        1.2207090427       -0.5097896014
 C         -5.1340641934        2.2059452395        0.6643220107
 C         -4.1920168586        3.4061690345        0.5627761796
 H         -4.3261613423        3.8930385269       -0.4036976082
 H         -4.4953772119        4.1192441643        1.3319389444
 C         -2.7097260790        3.0623684510        0.7667979068
 H         -2.6210536680        2.0823193938        1.2421665897
 H         -2.2542260058        3.7830698851        1.4500301254
 C         -1.8679604257        3.0637179953       -0.5094147292
 H         -0.8545381725        2.7556153349       -0.2373264845
 H         -1.8163159018        4.0780040362       -0.9129445820
 C         -2.3852944667        2.1257581000       -1.6082644005
 H         -3.2963419403        2.5303127337       -2.0497522466
 H         -1.6210327804        2.0531231467       -2.3857852620
 H         -4.9307924764        1.6626082420        1.5901105241
 H         -6.1598305220        2.5785021169        0.7150763169
 H         -5.8965033338        0.5213157378       -0.4230301099
 H         -5.1612763652        1.7658422165       -1.4489390447
 O         -4.0111584714       -0.8349609330        0.0182417874
 C         -2.9808322943       -1.7553461758        0.1074287707
 O         -3.2981713459       -2.8160718306        0.6837613105
 O         -0.4199627089        0.1367764353       -1.6296268963
 C         -0.6733503064       -2.5221366484       -0.3015871748
 C          0.1793942378       -2.2208217956        0.9089979855
 C          0.0479513280       -2.9889630350        2.0604612541
 C          0.7997532007       -2.7033504584        3.1857149981
 C          1.6882016222       -1.6444271896        3.1834923027
 C          1.8261820798       -0.8661227540        2.0377925062
 C          1.0821746501       -1.1654036142        0.9052583315
 H          1.1748276049       -0.5461651794        0.0293497931
 N          2.7398195790        0.1930307092        2.0188821406
 S          2.5123279059        1.5838522015        1.1120622016
 O          3.2943778591        2.5815667169        1.8159107036
 O          1.1144943632        1.8886809392        0.9349420039
 C          3.3303316521        1.2175935459       -0.4253812043
 C          4.7042533684        1.0730979352       -0.3803392781
 C          5.3883407170        0.7824972701       -1.5483134978
 C          4.6897605993        0.6420299509       -2.7386703315
 C          3.3127797892        0.7933593246       -2.7666587897
 C          2.6204303263        1.0861778309       -1.6004506317
 H          1.5464873324        1.1908692932       -1.5934792197
 H          2.7650847468        0.6817801554       -3.6890666146
 H          5.2207593711        0.4139937748       -3.6496121559
 H          6.4599120877        0.6653234702       -1.5289164477
 H          5.2075958496        1.2017662933        0.5634300187
 H          3.1812974066        0.3916924413        2.9040386609
 H          2.2700804496       -1.4141046157        4.0632392855
 H          0.6874472143       -3.3055203471        4.0747354902
 H         -0.6654765309       -3.8002880812        2.0729310723
 H         -1.2240471677       -3.4499830442       -0.0942202143
 C          0.1656188103       -2.7354308382       -1.5450235941
 C          0.8976063845       -4.0326371274       -1.7061906628
 C         -0.2878273705       -3.7278351836       -2.5711490224
 H         -0.1245384558       -3.5006182276       -3.6138085845
 H         -1.2093523796       -4.2590898192       -2.3805507353
 H          1.8791008379       -4.0166821560       -2.1541475870
 H          0.7795981046       -4.7731636073       -0.9294122791
 H          0.6467834888       -1.8371097780       -1.9059761501
