  62
        -98.93596356
 C         -2.5288193015       -0.2748027961        0.5818419742
 C         -2.2319988417        0.3647644562       -0.6464876425
 C         -2.0507046707        1.8281705498       -0.5987036445
 C         -2.0919132937        2.4627220072        0.5840912184
 C         -1.9718122214        3.9374867393        0.8829020081
 C         -0.9520640099        4.7549265455        0.0826262563
 C          0.3522473681        4.0177080249       -0.2542873798
 H          1.1989520356        4.6331466658        0.0564097701
 H          0.4144930486        3.0770936773        0.2978570279
 C          0.5008100112        3.7231812565       -1.7481622369
 H          0.1798604800        4.5981345874       -2.3187567973
 H          1.5575836170        3.5537748294       -1.9665399349
 C         -0.2625405294        2.4921878003       -2.2315622901
 H          0.1752008870        1.5974570630       -1.7811439949
 H         -0.1305329170        2.4114935732       -3.3135882640
 C         -1.7679653057        2.4898046874       -1.9173463675
 H         -2.1814563726        3.4952781250       -1.9575786323
 H         -2.2680493494        1.8773748340       -2.6728111598
 H         -1.4109731197        5.1065947827       -0.8403805002
 H         -0.7258755063        5.6407292132        0.6791209559
 H         -2.9628989451        4.3863208038        0.7621486331
 H         -1.7253792702        3.9887201226        1.9467072223
 O         -2.3102486392        1.7955619934        1.7555204074
 C         -2.5202998355        0.4293506116        1.7856108917
 O         -2.6880038547       -0.0357565198        2.9332130834
 H         -0.1383801065       -1.3740143497        1.1212310033
 C         -0.2771122518       -2.0769503356        0.3103936463
 C         -1.5646905330       -2.4416915226       -0.0637566094
 C         -1.7237744081       -3.3530463095       -1.0980766666
 C         -0.6153561991       -3.8580176984       -1.7566604000
 C          0.6615692864       -3.4543503774       -1.4141513493
 C          0.8302372514       -2.5509347226       -0.3699303917
 N          2.1105149171       -2.1187949977        0.0203683946
 S          2.2549179845       -0.5379215659        0.6014169818
 O          1.9774907344       -0.5429327670        2.0179451663
 O          1.4764845519        0.3734802453       -0.2028362254
 C          3.9969686185       -0.2604672513        0.3394045267
 C          4.4101015285        0.4760922845       -0.7542546543
 C          5.7680466710        0.6578799131       -0.9657870100
 C          6.6840444319        0.0995035498       -0.0870681105
 C          6.2540081815       -0.6369938724        1.0070239442
 C          4.8979500897       -0.8207039499        1.2254320714
 H          4.5151661194       -1.3758300189        2.0659389641
 H          6.9689645765       -1.0672194613        1.6895561512
 H          7.7399768735        0.2414798326       -0.2544229915
 H          6.1046417690        1.2328754631       -1.8132866572
 H          3.6596424658        0.8944060503       -1.4060665237
 H          2.8221113751       -2.3303175191       -0.6660606090
 H          1.5210455385       -3.8274976686       -1.9501147647
 H         -0.7505354944       -4.5597580840       -2.5658333414
 H         -2.7136126989       -3.6430823910       -1.4101202647
 C         -2.7008305458       -1.7828949664        0.6791701920
 H         -2.5728159541       -2.0087993704        1.7517802733
 C         -4.0763609878       -2.3003897887        0.2896146538
 C         -5.2889352967       -1.4276754451        0.4137545232
 C         -4.7960747408       -1.8375911335       -0.9398500529
 H         -5.3746449852       -2.5619784902       -1.4945005251
 H         -4.3053294315       -1.1023244287       -1.5565915219
 H         -6.2014252771       -1.8671332985        0.7879657502
 H         -5.1349769450       -0.4048372856        0.7270519000
 H         -4.2065868377       -3.3421545144        0.5671269514
 O         -2.1461274939       -0.2389099568       -1.7464965078
