  62
        -98.93778829
 C         -1.9505899564       -1.1709247811       -0.1161954164
 C         -2.4332560581       -0.0000590596       -0.7459662547
 C         -3.8914654549        0.2101246607       -0.6962908506
 C         -4.6711789411       -0.6988054874       -0.0863897203
 C         -6.1737873756       -0.7096681307        0.0447886729
 C         -6.8636355621        0.6160618395        0.3948058602
 C         -6.0503160211        1.5521044043        1.3006332082
 H         -6.6741005401        1.8626414626        2.1408862502
 H         -5.1898434708        1.0215906434        1.7118782718
 C         -5.5730565970        2.8149505050        0.5793226030
 H         -6.3910732338        3.1975056742       -0.0351254124
 H         -5.3400810501        3.5787594040        1.3251066634
 C         -4.3306303765        2.6430398278       -0.2940851527
 H         -4.1694137419        3.5772499654       -0.8376138229
 H         -3.4507121161        2.4852371705        0.3359916886
 C         -4.3885594931        1.4883213276       -1.3074993798
 H         -3.6964036889        1.7219419891       -2.1212381202
 H         -5.3872951922        1.3766088894       -1.7226947638
 H         -7.1216616745        1.1457008318       -0.5211801276
 H         -7.8045917679        0.3615477926        0.8855227708
 H         -6.5933978694       -1.0955239411       -0.8887831488
 H         -6.3851288112       -1.4484099032        0.8215715766
 O         -4.1607524598       -1.8181993906        0.5017410206
 C         -2.8019813390       -2.0785552009        0.5113448577
 O         -2.4817513378       -3.1288145859        1.1040435988
 O         -1.6901543648        0.8301230144       -1.3309062514
 C         -0.4622822447       -1.4746332735       -0.1088360592
 C          0.2832996252       -0.3250598814        0.5233414240
 C         -0.0756041511        0.0669129942        1.8114941173
 C          0.5502351573        1.1328035999        2.4264236833
 C          1.5567830652        1.8245533558        1.7745908699
 C          1.9268094337        1.4393984958        0.4922445694
 C          1.2962231527        0.3644448336       -0.1225252212
 H          1.5903234734        0.1032687811       -1.1244396931
 N          2.9286414249        2.1408340835       -0.1960396111
 S          4.1059247931        1.3402293933       -1.0686419683
 O          5.1163890084        2.3452420662       -1.3140516250
 O          3.5361911036        0.7106663833       -2.2315167353
 C          4.7359476221        0.1118245530        0.0600616927
 C          4.2453934255       -1.1770759700        0.0133994298
 C          4.6999931924       -2.0992983813        0.9430435380
 C          5.6305237981       -1.7191801257        1.8975431560
 C          6.1170773839       -0.4208427739        1.9282704342
 C          5.6636347010        0.5064939843        1.0046881350
 H          6.0244787691        1.5221227912        0.9867297428
 H          6.8450609121       -0.1299934966        2.6683748063
 H          5.9808021749       -2.4406644299        2.6187790806
 H          4.3246090669       -3.1099930673        0.9182767991
 H          3.5265166593       -1.4377433364       -0.7454145548
 H          3.3259034104        2.9131547856        0.3182043759
 H          2.0410985841        2.6645939709        2.2488780821
 H          0.2548581101        1.4290047788        3.4217715681
 H         -0.8658471207       -0.4721685288        2.3170763681
 H         -0.3386413618       -2.3593696883        0.5325350644
 C          0.0070303831       -1.8190947889       -1.5061976211
 C          1.1686233176       -2.7446075039       -1.7021189573
 C         -0.2202713614       -3.2055146432       -2.0260763010
 H         -0.4974807273       -3.3281821347       -3.0623409959
 H         -0.6937621689       -3.9127175093       -1.3603877471
 H          1.8506125112       -2.5506302006       -2.5171251576
 H          1.6346086904       -3.1517415172       -0.8172063149
 H         -0.1187814245       -1.0013870787       -2.2069416619
