  62
        -98.93311080
 C          2.0128695003        1.5154421051        0.3673690716
 C          2.2252914117        0.3782356521        1.1839460612
 C          3.3836833453       -0.4792818664        0.8710135304
 C          4.1710654866       -0.1410568875       -0.1667824190
 C          5.3768677037       -0.8682621124       -0.6997432715
 C          5.0033063546       -2.1195232599       -1.5109742353
 C          3.9149474504       -2.9894034718       -0.8872947065
 H          3.6676980364       -3.7754264123       -1.6055675844
 H          3.0155984362       -2.3882612442       -0.7417009725
 C          4.2960087633       -3.6630154999        0.4289044347
 H          5.1755996804       -4.2906335813        0.2686944428
 H          3.4679790724       -4.3185945648        0.7100113746
 C          4.5776481355       -2.7246989644        1.6044313550
 H          5.5641585230       -2.2764889366        1.5215026452
 H          4.5910848907       -3.3351462022        2.5122963982
 C          3.5247424097       -1.6426102951        1.8230507444
 H          3.6855859046       -1.1954600494        2.8116816072
 H          2.5352021775       -2.1099156670        1.8775029279
 H          5.9061552971       -2.7135506849       -1.6630031483
 H          4.6463646002       -1.7916938431       -2.4903327183
 H          6.0508743641       -1.1199825997        0.1137975988
 H          5.8980408135       -0.1699236358       -1.3584029357
 O          3.9236325452        0.9565057000       -0.9343376555
 C          2.8514976432        1.8058357898       -0.7090129828
 O          2.7782962765        2.7461127952       -1.5200268750
 O          1.4710983966        0.0860219165        2.1522473315
 C          0.8212552460        2.3872689535        0.7191519452
 C         -0.4144515128        1.9068696963        0.0022169974
 C         -0.4236400360        1.7198059937       -1.3766849974
 C         -1.5676826010        1.2765302855       -2.0152764299
 C         -2.7176759366        0.9996599444       -1.2960084029
 C         -2.7112603227        1.1614763711        0.0830831841
 C         -1.5638917780        1.6166090695        0.7215379977
 H         -1.5613028949        1.7332947976        1.7965716246
 N         -3.8643543041        0.8640486071        0.8241544053
 S         -4.7721519576       -0.4761146992        0.4061740085
 O         -5.6349183922       -0.1503072110       -0.7020170570
 O         -5.4382106189       -0.8709259862        1.6270231609
 C         -3.5971999095       -1.7226381038       -0.0958657395
 C         -2.5783781769       -2.0580442416        0.7735989597
 C         -1.6568421964       -3.0174997685        0.3875014392
 C         -1.7705409541       -3.6254507771       -0.8534131487
 C         -2.8034727858       -3.2831779881       -1.7121358619
 C         -3.7257688620       -2.3212334692       -1.3327990950
 H         -4.5404711571       -2.0210612023       -1.9717814305
 H         -2.8906912389       -3.7593956045       -2.6754255205
 H         -1.0489443140       -4.3699741494       -1.1507550526
 H         -0.8516943564       -3.2803861382        1.0549620889
 H         -2.5098309928       -1.5733532347        1.7342940338
 H         -3.7497080732        0.9400542551        1.8239040461
 H         -3.6189664644        0.6661809167       -1.7840896871
 H         -1.5655531971        1.1446713565       -3.0865948058
 H          0.4737274389        1.9309466950       -1.9390338906
 H          0.6610422326        2.2169119037        1.7959151707
 C          1.0787742945        3.8756048897        0.5347384365
 C          0.4287265006        4.7091041178       -0.5240651370
 C          0.0160729204        4.8674467644        0.9066579224
 H          0.3038203570        5.7628769086        1.4363912034
 H         -0.9497535548        4.4764233357        1.1906492369
 H          1.0249098165        5.4816777296       -0.9848790992
 H         -0.2602119954        4.2318283145       -1.2026760898
 H          2.0998791332        4.1411050166        0.7889662440
