  62
        -98.94029969
 C         -2.4814729500       -1.0949544604        0.1043115602
 C         -2.7364799904       -0.0572052503       -0.8243455596
 C         -4.1458824705        0.3270456096       -0.9731983591
 C         -5.0953930802       -0.3252816706       -0.2779541589
 C         -6.5756920803       -0.0620166308       -0.3386458184
 C         -7.0423744501        1.0792173190        0.5756126119
 C         -6.6552863404        2.4840318191        0.1117247121
 H         -6.9662514607        2.6216313093       -0.9242460378
 H         -7.2246786203        3.1899789789        0.7195498324
 C         -5.1609224704        2.8077630192        0.2495993617
 H         -4.6930443001        2.0901010992        0.9275197514
 H         -5.0419432204        3.7959844792        0.6994364719
 C         -4.3886065308        2.8152462196       -1.0698089785
 H         -3.3365334207        3.0150026897       -0.8501656588
 H         -4.7596643011        3.6208335297       -1.7072735683
 C         -4.4647892409        1.4978854097       -1.8528111988
 H         -5.4509257210        1.3819519197       -2.3017840585
 H         -3.7169117511        1.5279570800       -2.6489123690
 H         -6.6481305898        0.9052634288        1.5795074118
 H         -8.1319706101        1.0258273588        0.6328096922
 H         -7.0682051601       -0.9827577109       -0.0188373985
 H         -6.8686932406        0.1502048694       -1.3670668083
 O         -4.8096161198       -1.3439097508        0.5771981608
 C         -3.5007803997       -1.7346484807        0.8084360703
 O         -3.3771107994       -2.6480329308        1.6502606201
 O         -1.8387782707        0.5195558099       -1.4916619397
 C         -1.0556840799       -1.5461905103        0.3556900597
 C         -0.1918104799       -0.3798511203        0.7716437496
 C         -0.6772161497        0.5286801095        1.7091077499
 C          0.0942357703        1.5961807295        2.1246753999
 C          1.3766867201        1.7691431697        1.6341197996
 C          1.8741049699        0.8645653099        0.7045990092
 C          1.0896800999       -0.1983408601        0.2771190693
 H          1.5030198198       -0.8819051399       -0.4453634110
 N          3.1652166798        1.0167641702        0.1743782389
 S          4.0615684998       -0.3742098397       -0.1618713516
 O          3.7143569995       -0.8497735895       -1.4772170516
 O          3.9261903703       -1.3244110599        0.9188396682
 C          5.7116124597        0.3030088405       -0.1849172320
 C          6.5123132801        0.1758422304        0.9344164177
 C          7.7829586500        0.7293635405        0.9162536375
 C          8.2275353996        1.4000125808       -0.2131841925
 C          7.4125331793        1.5193088709       -1.3293273723
 C          6.1417687893        0.9666632808       -1.3186702620
 H          5.4772952191        1.0257824409       -2.1649610318
 H          7.7628837490        2.0387865111       -2.2066202223
 H          9.2166665496        1.8298273309       -0.2249480027
 H          8.4201867303        0.6350985804        1.7807305873
 H          6.1269434504       -0.3610145698        1.7863382578
 H          3.7145872998        1.7088679201        0.6650736989
 H          1.9821644501        2.6001007297        1.9628721396
 H         -0.3020946796        2.2959779593        2.8452844802
 H         -1.6746247496        0.3873855893        2.1042468602
 H         -1.0997455096       -2.2515934305        1.1997468395
 C         -0.5234008702       -2.2790383400       -0.8586925106
 C          0.5099556800       -3.3527282800       -0.7036824512
 C         -0.8979786101       -3.7142079900       -1.0678225308
 H         -1.1009855503       -4.0536787399       -2.0723552108
 H         -1.5187167998       -4.1774946903       -0.3144976007
 H          1.2802777498       -3.4374228197       -1.4561829314
 H          0.8533811203       -3.5761969601        0.2956539587
 H         -0.4675396005       -1.6427405099       -1.7353242605
