  62
        -98.94489968
 C          1.8518301601        1.2419980301       -0.0335517686
 C          3.0981836699        0.9500441595        0.5705146715
 C          3.9059175398       -0.0892824804       -0.0819235489
 C          3.4316190598       -0.6933937197       -1.1868659993
 C          4.1233197097       -1.8064420395       -1.9185156798
 C          3.6928217993       -3.1791301197       -1.3824097506
 C          3.7574456290       -3.2964672605        0.1405766294
 H          3.0186447291       -2.6236776405        0.5830654896
 H          3.4593677887       -4.3143516705        0.4017832288
 C          5.1374057590       -2.9963891411        0.7425656298
 H          5.9014765191       -3.0609092509       -0.0329070001
 H          5.3674096987       -3.7600164615        1.4885697394
 C          5.2413532892       -1.6411851615        1.4447238305
 H          4.4223708491       -1.5355799117        2.1610884004
 H          6.1752329891       -1.6236547420        2.0127730907
 C          5.2415363896       -0.4124439010        0.5265718511
 H          5.5104912197        0.4555345386        1.1358153616
 H          5.9992073197       -0.5344916008       -0.2501940388
 H          4.3301633192       -3.9415632296       -1.8338141108
 H          2.6636098593       -3.3686433692       -1.6969688008
 H          3.8589877499       -1.7404634889       -2.9752315998
 H          5.2001394297       -1.6870922798       -1.8155110995
 O          2.2309811900       -0.3868558991       -1.7404905694
 C          1.4108870902        0.5896385308       -1.1858092790
 O          0.3409646503        0.7628807514       -1.7958942091
 H          0.1872879596       -0.2159452101        1.0860725304
 C         -0.6297213903        0.4894231901        1.1734315606
 C         -0.3972475399        1.8371498001        0.9425462914
 C         -1.4668757297        2.7184212403        1.0668272516
 C         -2.7250260499        2.2595205404        1.4142173812
 C         -2.9554303502        0.9115345104        1.6201084404
 C         -1.8989839204        0.0213198102        1.4806605102
 N         -2.1319423508       -1.3567450098        1.6222624494
 S         -3.5040145808       -1.9842917891        0.8920728188
 O         -4.6113021109       -1.8967003393        1.8132497887
 O         -3.1372440011       -3.3249014090        0.4884325382
 C         -3.8444235003       -0.9647963183       -0.5346756107
 C         -5.1293076502       -0.4962377879       -0.7262473107
 C         -5.3964054498        0.3023027828       -1.8262651303
 C         -4.3762322396        0.6273636530       -2.7072308899
 C         -3.0919191497        0.1480210026       -2.5022779600
 C         -2.8221980001       -0.6618164881       -1.4112273503
 H         -1.8222930002       -1.0281388484       -1.2412920404
 H         -2.2830209896        0.4090313727       -3.1657383897
 H         -4.5801535393        1.2600736635       -3.5565951097
 H         -6.3950247497        0.6751457931       -1.9877335603
 H         -5.8873146004       -0.7586088481       -0.0060116409
 H         -1.3260078509       -1.9290545899        1.4177926092
 H         -3.9308827004        0.5336000805        1.8810811801
 H         -3.5405048697        2.9585850506        1.5157269314
 H         -1.3111222594        3.7699018404        0.8896530822
 C          0.9855453703        2.3236797900        0.5795723018
 H          1.4993214802        2.6151838994        1.5087142021
 C          0.9394740707        3.5280916805       -0.3441339775
 C          0.9668674010        4.9220442102        0.2057652032
 C          2.1706667809        4.3693546202       -0.4939340469
 H          2.4233129412        4.7470495707       -1.4732971867
 H          3.0292496208        4.0975283197        0.1030447931
 H          1.0208126508        5.0395113196        1.2777337733
 H          0.3905058012        5.6848325106       -0.2958222965
 H          0.3514002008        3.3409881811       -1.2355876777
 O          3.5155607099        1.5316316988        1.6088633519
