  62
        -98.94182515
 C         -2.3777598680       -1.0743909545        0.1342698785
 C         -3.6330900546       -0.9294248377        0.7829682723
 C         -4.6035142382       -0.0416554199        0.1349202031
 C         -4.2687276105        0.5919879131       -1.0031242935
 C         -5.1536210723        1.5134484489       -1.7980158203
 C         -5.1698479910        2.9602130220       -1.2858767572
 C         -5.9279796789        3.1786816803        0.0241471071
 H         -6.0464567494        4.2568323986        0.1489702041
 H         -6.9267151460        2.7490700183       -0.0596348694
 C         -5.2236901233        2.6128340145        1.2652454405
 H         -5.2435861643        3.3560886087        2.0654835478
 H         -4.1731331406        2.4226839826        1.0324918897
 C         -5.8484895915        1.3328021048        1.8204134399
 H         -5.2492880103        1.0004031080        2.6717949518
 H         -6.8576623324        1.5441088719        2.1807197824
 C         -5.9219202928        0.1773812017        0.8137721728
 H         -6.1716703093       -0.7362212438        1.3587705025
 H         -6.7011247121        0.3695262961        0.0764886615
 H         -4.1381680152        3.3016848551       -1.1721057293
 H         -5.6387301762        3.5734033506       -2.0590182996
 H         -6.1706926197        1.1204837599       -1.8142263059
 H         -4.7642175574        1.5142387631       -2.8184895741
 O         -3.0516891649        0.4429550077       -1.5870757693
 C         -2.0699324729       -0.3734560104       -1.0335025709
 O         -1.0088953147       -0.3791762171       -1.6859951239
 O         -3.9294847584       -1.5196587091        1.8550738820
 C         -1.3560790944       -1.9757740464        0.8073339088
 C         -0.0508579667       -1.2410815583        0.9684599074
 C          0.0925801185       -0.3207451349        2.0025144305
 C          1.2615837087        0.4024787365        2.1454413326
 C          2.3066144988        0.2319716598        1.2540073476
 C          2.1638594776       -0.6669188159        0.2060949342
 C          0.9989176195       -1.4128314773        0.0810943779
 H          0.8930431672       -2.1005886535       -0.7433747986
 N          3.2116672990       -0.8413657074       -0.7122311625
 S          4.0383051132        0.5035308513       -1.2795191959
 O          3.2201097752        1.6936712038       -1.2797295775
 O          4.5849246223        0.0949124804       -2.5555240703
 C          5.3772368226        0.6842820212       -0.1164404417
 C          6.1820907503       -0.4116912380        0.1262378213
 C          7.2326907487       -0.2862383849        1.0208830006
 C          7.4623956240        0.9270746244        1.6522925041
 C          6.6483906862        2.0193628756        1.3952228122
 C          5.5950289131        1.8997998678        0.5018287831
 H          4.9336211389        2.7209506022        0.2743472247
 H          6.8284567476        2.9623513480        1.8859810262
 H          8.2806248700        1.0222649783        2.3485042752
 H          7.8678180360       -1.1335449680        1.2232528219
 H          5.9720703169       -1.3349227007       -0.3871626073
 H          2.9766434864       -1.4608883976       -1.4744020635
 H          3.2148805737        0.8039677657        1.3497929904
 H          1.3609397305        1.1098502364        2.9548005233
 H         -0.7302307407       -0.1723400151        2.6883754562
 H         -1.7742971536       -2.1517949512        1.8116014435
 C         -1.1911392036       -3.3453784608        0.1654598045
 C         -2.3845900130       -4.0863471185       -0.3569531950
 C         -1.3351913324       -3.5925966332       -1.3050606859
 H         -0.6798058618       -4.3185797790       -1.7646739768
 H         -1.5667844300       -2.7536207425       -1.9422967121
 H         -2.4567814227       -5.1475079556       -0.1727272874
 H         -3.3343756646       -3.5719518017       -0.3366066650
 H         -0.4429737232       -3.9389741223        0.6824791120
