  62
        -98.94485924
 C         -2.6445954502       -0.3415953886       -0.0122171208
 C         -2.4207250705       -1.4474811590       -0.8652290604
 C         -1.7305046211       -2.5916187691       -0.2625904099
 C         -1.3616261114       -2.5412014289        1.0306392902
 C         -0.6022301821       -3.6059115691        1.7738557207
 C          0.9162153080       -3.5173880599        1.5611324810
 C          1.4093450981       -4.0112318405        0.1995012212
 H          2.4913182080       -4.1363888009        0.2777218115
 H          0.9817872377       -4.9928534203       -0.0090395186
 C          1.1058240588       -3.0541517306       -0.9621580791
 H          0.8801538992       -2.0638282304       -0.5571746994
 H          1.9939883590       -2.9520060812       -1.5915401489
 C         -0.0370071712       -3.5017660904       -1.8743035692
 H          0.2478667485       -4.4207428106       -2.3918768689
 H         -0.1978877206       -2.7268193805       -2.6285596795
 C         -1.3698461115       -3.7422765696       -1.1542893795
 H         -2.1540700613       -3.8342219494       -1.9100921397
 H         -1.3264626420       -4.6671823294       -0.5801217992
 H          1.3923166275       -4.1184425499        2.3395722313
 H          1.2226973684       -2.4772281200        1.7030505908
 H         -0.9606618125       -4.5938950490        1.4827888608
 H         -0.8121288223       -3.4555876287        2.8349299906
 O         -1.6500064211       -1.4844833186        1.8344701298
 C         -2.2416101505       -0.3407029085        1.3244974093
 O         -2.3743302502        0.5827307918        2.1514111991
 O         -2.7593770402       -1.4659192092       -2.0808260605
 C         -3.1839455594        0.9485055014       -0.6086106612
 C         -2.0932534290        1.9854982410       -0.4843865813
 C         -2.2726308085        3.2555541812        0.0459275183
 C         -1.1880317282        4.0959906608        0.2396416584
 C          0.0952187017        3.6872157501       -0.0762757912
 C          0.2771062613        2.4321861098       -0.6379220008
 C         -0.8095982190        1.6067608303       -0.8589317709
 H         -0.6507520494        0.6214504801       -1.2815069305
 N          1.5987008711        1.9609440891       -0.8961863304
 S          2.1724505004        1.1874797693        0.5050260800
 O          1.4154369598       -0.0192676503        0.7586404001
 O          2.2033630306        2.1654027695        1.5624631997
 C          3.8362041904        0.7713197784        0.0160663305
 C          4.7456662909        1.7995835079       -0.1409827996
 C          6.0340105008        1.4961079372       -0.5503291192
 C          6.3886125803        0.1775090769       -0.7956647487
 C          5.4646051898       -0.8430801526       -0.6326577787
 C          4.1733446098       -0.5460949419       -0.2244789291
 H          3.4223727994       -1.3066271715       -0.0813552190
 H          5.7426581293       -1.8674433928       -0.8215537483
 H          7.3921883202       -0.0566707336       -1.1138944584
 H          6.7560364812        2.2865389568       -0.6769767692
 H          4.4251851013        2.8065073781        0.0675295501
 H          1.5836660910        1.2556036189       -1.6245361302
 H          0.9523260820        4.3090899497        0.1227222588
 H         -1.3437520678        5.0740170009        0.6691746280
 H         -3.2594775884        3.5787807617        0.3352895080
 H         -3.3502144793        0.7345779812       -1.6749633212
 C         -4.4959802194        1.3577636522        0.0213959483
 C         -5.4701662388        2.1960032525       -0.7502156321
 C         -5.7662182595        0.7503356727       -0.4913496518
 H         -6.5392859398        0.4986857332        0.2188389781
 H         -5.6856749397        0.0545926224       -1.3137240416
 H         -6.0450431186        2.9387125429       -0.2182204325
 H         -5.1955027784        2.4845332021       -1.7534625622
 H         -4.4114175296        1.5172326525        1.0903306983
