  62
        -98.94396394
 C          2.2372233800        1.2484882599       -0.1537821593
 C          2.6270309700        0.1425166600       -0.9465437094
 C          3.9994744199       -0.3410285902       -0.7357657692
 C          4.7953238997        0.2922002495        0.1451119511
 C          6.1929721496       -0.1279488808        0.4946150813
 C          6.1995513492       -1.0864696811        1.6937394711
 C          5.2053097390       -2.2409064209        1.5672549407
 H          4.1886044091       -1.8414498107        1.5850412905
 H          5.3194277687       -2.8671381111        2.4547484206
 C          5.3877417692       -3.1006409907        0.3086815505
 H          5.3235308989       -4.1534159007        0.5917648903
 H          6.3815342193       -2.9382813507       -0.1103082492
 C          4.3359609695       -2.8676551803       -0.7777648597
 H          3.3356747093       -2.9374968102       -0.3420418899
 H          4.4267635295       -3.6692351501       -1.5158155098
 C          4.4398517198       -1.5363219401       -1.5327419894
 H          3.7643162600       -1.5888886199       -2.3916858895
 H          5.4578729200       -1.4015191102       -1.9039038191
 H          5.9509112690       -0.5179406812        2.5928288612
 H          7.2088988191       -1.4846597213        1.8120828813
 H          6.6500433997       -0.6065014207       -0.3692046487
 H          6.7669456797        0.7641793690        0.7507187816
 O          4.3942610598        1.3716793294        0.8640130512
 C          3.1045055899        1.8634667296        0.7491878110
 O          2.8546512598        2.8352968095        1.4903673512
 H         -1.2389561397        0.7850396708       -1.7992034002
 C         -1.1514928000        0.3097460406       -0.8351728703
 C         -0.1634451402        0.7105473003        0.0488109800
 C         -0.0813258206        0.0763508100        1.2862623699
 C         -0.9480470808       -0.9471466399        1.6166311895
 C         -1.9191032507       -1.3615124696        0.7212201592
 C         -2.0171638703       -0.7283060293       -0.5098062207
 N         -3.0008950401       -1.1375875790       -1.4216664310
 S         -4.5311848903       -1.4993831288       -0.8612158615
 O         -4.5481076206       -2.8237674590       -0.2915122717
 O         -5.4052683000       -1.2889368685       -1.9937839416
 C         -4.8589548304       -0.2919689990        0.4117239287
 C         -4.8003332301        1.0455615010        0.0729459790
 C         -5.0287616902        1.9960751109        1.0542282091
 C         -5.3113972306        1.5954578506        2.3513644590
 C         -5.3717264009        0.2490716906        2.6745413587
 C         -5.1414472008       -0.7061126693        1.6971933086
 H         -5.1752102210       -1.7630476593        1.9061244383
 H         -5.5937189911       -0.0596885496        3.6833809786
 H         -5.4862704906        2.3381030305        3.1137911091
 H         -4.9830759900        3.0441626609        0.8054236994
 H         -4.5850306498        1.3258048412       -0.9454537009
 H         -3.0223376298       -0.6113777288       -2.2818314709
 H         -2.5873237308       -2.1749765595        0.9524000689
 H         -0.8652308111       -1.4332565501        2.5769541894
 H          0.6831164493        0.3942429798        1.9827405202
 C          0.8278461801        1.8039106902       -0.2664475895
 H          0.7437419200        2.5761098600        0.5112792206
 C          0.6242642005        2.4525536105       -1.6192726194
 C         -0.4140394393        3.5197195507       -1.7897782795
 C          1.0408323208        3.8790823505       -1.8069053091
 H          1.4924525710        4.1648186506       -2.7451551089
 H          1.4549332007        4.3912917102       -0.9506252189
 H         -0.9921555794        3.7957561206       -0.9210739596
 H         -0.9616179491        3.5656307010       -2.7192471596
 H          0.8019527306        1.7703333206       -2.4428003495
 O          1.8725995301       -0.4132005997       -1.7871263597
