  62
        -98.94451924
 C         -1.4524926198       -1.1014182978       -0.5126364475
 C         -2.8065368074       -1.4580249839       -0.3060440079
 C         -3.7864364911       -0.3841063184       -0.5045461739
 C         -3.3687749199        0.8415753714       -0.8706505564
 C         -4.2486875860        2.0330583162       -1.1365804821
 C         -4.6395099142        2.8154790488        0.1246090690
 C         -5.6603059889        2.1233816565        1.0286080076
 H         -6.0046853882        2.8662078309        1.7509334557
 H         -6.5245209936        1.8221175349        0.4356783716
 C         -5.1096538856        0.9110543051        1.7925318641
 H         -4.0176110722        0.9400507355        1.7838740579
 H         -5.4230004901        0.9659546125        2.8375699144
 C         -5.5723125267       -0.4421444017        1.2522889868
 H         -6.6533761723       -0.5367876934        1.3768802014
 H         -5.0960413531       -1.2284745611        1.8435424297
 C         -5.2277871502       -0.6848833866       -0.2231534837
 H         -5.3966465722       -1.7414681980       -0.4454083231
 H         -5.8745438927       -0.0856866491       -0.8637636244
 H         -5.0629311909        3.7683062255       -0.2012960480
 H         -3.7341070538        3.0312019487        0.6962593338
 H         -5.1492722320        1.7137763504       -1.6618890584
 H         -3.6811064988        2.6973924396       -1.7914919488
 O         -2.0576892641        1.1418956662       -1.0666003408
 C         -1.0653863044        0.1892944501       -0.8747863654
 O          0.0898183470        0.6097125679       -1.0625045464
 O         -3.1779981117       -2.6156784729        0.0263672462
 C         -0.3764223763       -2.1538558810       -0.3096918003
 C          0.5300788685       -1.7123368362        0.8112725490
 C          0.0057624105       -1.6415116641        2.1004867814
 C          0.7844956263       -1.2154727244        3.1581121119
 C          2.1004965967       -0.8388399330        2.9505227423
 C          2.6316483395       -0.9033628812        1.6683463319
 C          1.8501613687       -1.3445135394        0.6084063050
 H          2.2907394919       -1.3875068790       -0.3726306306
 N          3.9666626408       -0.5436574031        1.4341743230
 S          4.4263893964        0.2199740273        0.0246392351
 O          4.4361431341       -0.7154741389       -1.0723485639
 O          5.7128043507        0.8028169678        0.3518731156
 C          3.2594204089        1.5335122374       -0.2814869909
 C          2.9037972407        1.8120242590       -1.5836511773
 C          2.0503957585        2.8727889746       -1.8355142011
 C          1.5652271384        3.6313356262       -0.7837588270
 C          1.9310293468        3.3388265581        0.5201332262
 C          2.7907822378        2.2842720774        0.7771051948
 H          3.0879510965        2.0413842090        1.7846064736
 H          1.5443807388        3.9260370038        1.3381844816
 H          0.8898913011        4.4493612437       -0.9808445834
 H          1.7566093872        3.0945550817       -2.8491044999
 H          3.2885061911        1.1857403175       -2.3727672008
 H          4.4596407674       -0.1748448213        2.2339808263
 H          2.7123960690       -0.5030069594        3.7739650301
 H          0.3653086120       -1.1701371582        4.1519139526
 H         -1.0258095479       -1.9256786115        2.2579775040
 H         -0.9095572187       -3.0593779109        0.0138132545
 C          0.3493457890       -2.4529915056       -1.6033518996
 C          1.1053168604       -3.7385381117       -1.7494273789
 C         -0.1716091896       -3.5293424794       -2.5055166710
 H         -0.1210550538       -3.3762495397       -3.5731451586
 H         -1.0510893209       -4.0673326559       -2.1828782544
 H          2.0380352963       -3.7275930974       -2.2930196122
 H          1.0935660827       -4.4207353133       -0.9127372554
 H          0.7609340990       -1.5671982829       -2.0740818930
