  62
        -98.94541766
 C          2.5935678062        0.0701434605       -0.5155197227
 C          2.4984232574        0.7976898592        0.6953318233
 C          2.0490240948        2.1883895588        0.5695479676
 C          1.7346044621        2.6827100148       -0.6412530011
 C          1.2140223500        4.0654327624       -0.9241945364
 C         -0.2982937256        4.2032929105       -0.6965424415
 C         -0.7346788555        4.2651020213        0.7683426911
 H         -0.1283953247        5.0004112692        1.2990540712
 H         -1.7659921943        4.6235018428        0.7770172448
 C         -0.6790133674        2.9175083773        1.5015407130
 H         -0.6605123308        2.1061497895        0.7698814011
 H         -1.5894001905        2.7909010123        2.0931271203
 C          0.4994432253        2.7597439566        2.4627185345
 H          0.4770206557        1.7436969340        2.8652664708
 H          0.3872720405        3.4577698064        3.2962105875
 C          1.8769628163        2.9845535490        1.8282664337
 H          2.0316725936        4.0448136849        1.6290019319
 H          2.6364178951        2.6456248961        2.5376832095
 H         -0.6198324394        5.1234080488       -1.1906818799
 H         -0.8011727078        3.3648554381       -1.1858992834
 H          1.7468034093        4.7951690456       -0.3135148921
 H          1.4260962551        4.2691807034       -1.9759966475
 O          1.8666725839        1.9595326161       -1.7859554168
 C          2.2637130492        0.6336312618       -1.7469552816
 O          2.2961051501        0.0721825292       -2.8638506442
 O          2.7671328974        0.3119139161        1.8253499499
 C          2.9053363777       -1.4152074884       -0.4760682452
 C          1.8217177083       -2.1091026146        0.3181945241
 C          2.0598200175       -3.1263956304        1.2319369666
 C          1.0071622527       -3.6920061134        1.9327465244
 C         -0.2910167566       -3.2544071065        1.7481765738
 C         -0.5395847437       -2.2339941433        0.8344753664
 C          0.5113719410       -1.6947178209        0.1146402484
 H          0.3093173289       -0.9203489856       -0.6104434839
 N         -1.8353175587       -1.7157025945        0.6713538463
 S         -2.2553485574       -0.8438034548       -0.7055948550
 O         -2.0813285814       -1.6624533615       -1.8871054331
 O         -1.5792014095        0.4280281369       -0.6969915866
 C         -3.9901530963       -0.5968399070       -0.3810933486
 C         -4.9175746045       -1.4721161703       -0.9136529737
 C         -6.2605178392       -1.2811104906       -0.6280407724
 C         -6.6503653470       -0.2255111483        0.1824571809
 C         -5.7079494339        0.6458740382        0.7083645234
 C         -4.3639362206        0.4607040278        0.4261200353
 H         -3.5948136782        1.1152382419        0.8027617752
 H         -6.0145577501        1.4675087232        1.3352822744
 H         -7.6958505717       -0.0787311028        0.4030399473
 H         -6.9957787068       -1.9543633987       -1.0383088857
 H         -4.5687612558       -2.2712639858       -1.5478533056
 H         -2.5655999959       -2.3561631411        0.9491631405
 H         -1.1044217478       -3.6858564389        2.3108628016
 H          1.2036106283       -4.4828016089        2.6408641960
 H          3.0669245274       -3.4712872084        1.4005688886
 H          2.8443084935       -1.7687628907       -1.5168896990
 C          4.3013631548       -1.6716939287        0.0498345194
 C          5.0702249775       -2.8749652090       -0.4045767956
 C          5.4644819177       -1.5100733380       -0.8805264587
 H          6.3732414784       -1.0701899841       -0.4984916131
 H          5.2448026036       -1.2396465597       -1.9035289857
 H          5.7141381179       -3.3734956607        0.3041400148
 H          4.5918051309       -3.5370020765       -1.1107463884
 H          4.4265003293       -1.3360590533        1.0725013545
