  62
        -98.94606315
 C         -1.9352159300       -1.3095089397        0.2226367109
 C         -1.7390088299        0.0860578602        0.0961563102
 C         -2.9096334199        0.9215671704        0.3909314199
 C         -4.0671837799        0.3450239405        0.7625475902
 C         -5.3408002199        1.0641494707        1.1160736899
 C         -6.1990418299        1.4487661002       -0.0969388802
 C         -5.6542128300        2.6017453298       -0.9410301808
 H         -6.4544204600        2.9090642195       -1.6172714409
 H         -5.4315085299        3.4507195001       -0.2939893012
 C         -4.4144240600        2.2466703194       -1.7738535707
 H         -4.3226821000        1.1603576693       -1.8459667502
 H         -4.5388422301        2.6243286389       -2.7913362908
 C         -3.1031936000        2.8189322596       -1.2352884510
 H         -3.1320561600        3.9097098696       -1.2852646415
 H         -2.2895099600        2.4735226593       -1.8782637709
 C         -2.7793805899        2.4032285103        0.2054423892
 H         -1.7411735499        2.6714535103        0.4148903290
 H         -3.4260759299        2.9330091606        0.9044323890
 H         -6.3293764500        0.5658011499       -0.7269696198
 H         -7.1836794499        1.7360526903        0.2791421797
 H         -5.9185295699        0.3819975110        1.7434767303
 H         -5.1086408298        1.9574420710        1.6965835195
 O         -4.2098949699       -1.0020807594        0.8840465608
 C         -3.1572070299       -1.8599127595        0.6080196012
 O         -3.4269749399       -3.0697811495        0.7512805118
 O         -0.6450635400        0.6093805000       -0.2374996101
 C         -0.7889583200       -2.2593890499       -0.0733465687
 C          0.4084456301       -1.9019480095        0.7730302610
 C          0.2403321801       -1.7622724989        2.1490974710
 C          1.3070883902       -1.4338254985        2.9620444008
 C          2.5645762102       -1.2295008988        2.4198801006
 C          2.7457154701       -1.3753370594        1.0505891507
 C          1.6736643100       -1.7225992498        0.2376996209
 H          1.8458918900       -1.8271821803       -0.8198631591
 N          4.0183190301       -1.2076827897        0.4756136105
 S          4.2525014800       -0.1790235403       -0.8233494500
 O          3.4349748199       -0.5911359908       -1.9341165797
 O          5.6826801600       -0.1962108804       -1.0425000400
 C          3.7685922001        1.4360011300       -0.2388214707
 C          2.4293930501        1.7468819101       -0.1137121308
 C          2.0823492701        2.9935629003        0.3845943887
 C          3.0656503301        3.9006215004        0.7462604682
 C          4.4063439301        3.5703737804        0.6152607083
 C          4.7624841701        2.3259916901        0.1225558588
 H          5.7909922101        2.0271354801       -0.0007168111
 H          5.1715226901        4.2763779405        0.8955151679
 H          2.7850311402        4.8687309006        1.1306456777
 H          1.0365128201        3.2372702304        0.4838960186
 H          1.6679394400        1.0367800499       -0.3948894304
 H          4.7548340801       -1.0623295394        1.1518579404
 H          3.3985382102       -0.9648366785        3.0522317304
 H          1.1589575202       -1.3281704280        4.0262124907
 H         -0.7447159798       -1.9125620787        2.5706557611
 H         -1.1347331400       -3.2598523897        0.2258890217
 C         -0.4961712301       -2.2724654606       -1.5593979388
 C          0.0871699299       -3.4930758609       -2.2029373282
 C         -1.3410919101       -3.1194457610       -2.4605898583
 H         -1.6072515102       -2.7325969115       -3.4329767585
 H         -2.1174779101       -3.7120857608       -1.9983041480
 H          0.8069229699       -3.3600978213       -2.9969151283
 H          0.2813434299       -4.3468882306       -1.5712810678
 H         -0.1841651101       -1.3043203108       -1.9360010892
