  62
        -98.93953342
 C          1.9082188587        0.8656183361        0.2248555558
 C          2.3053435171       -0.1339908840        1.1474389355
 C          2.7133032851       -1.4202237474        0.5740157172
 C          2.6180578336       -1.6161257764       -0.7531749896
 C          2.9637441464       -2.8822745320       -1.4892218226
 C          4.4558361322       -3.0260974540       -1.8199645310
 C          5.3600001112       -3.3390416259       -0.6270172816
 H          4.9622434831       -4.1991113284       -0.0876117142
 H          6.3329319879       -3.6272216246       -1.0297385062
 C          5.5560738664       -2.1663133191        0.3439157998
 H          6.6153474481       -2.0716391120        0.5926941969
 H          5.2574666377       -1.2358757134       -0.1447237543
 C          4.7917964216       -2.2992338342        1.6613374314
 H          4.9725367959       -1.3998791390        2.2558024225
 H          5.1727013505       -3.1556490972        2.2219197042
 C          3.2744943186       -2.4595453396        1.4967710786
 H          3.0371176617       -3.4591223599        1.1325616621
 H          2.8038256464       -2.3232664853        2.4738188317
 H          4.7954529603       -2.1075779919       -2.3040526972
 H          4.5510990836       -3.8386088614       -2.5438165965
 H          2.4019133824       -2.8583808321       -2.4254581313
 H          2.6315135010       -3.7434274726       -0.9084811072
 O          2.1621953927       -0.6570273064       -1.6005102064
 C          1.8039084067        0.6043709775       -1.1421139948
 O          1.4198464497        1.3735559907       -2.0432277741
 O          2.3153293420        0.0415634115        2.3968048408
 C          1.4766343293        2.2085624277        0.7838714760
 C          0.1496045166        2.6185191155        0.1935158411
 C         -0.1135167110        3.8804229982       -0.3210100895
 C         -1.3671187947        4.1806750654       -0.8271078325
 C         -2.3751906558        3.2365258210       -0.8363739485
 C         -2.1175976551        1.9633585442       -0.3351171127
 C         -0.8712760942        1.6745803683        0.1912505289
 H         -0.6822556525        0.6878548691        0.5912153211
 N         -3.1066818202        0.9684738847       -0.3944275364
 S         -2.9820905042       -0.4458869138        0.5001553488
 O         -2.8541913939       -0.1496415572        1.9112290206
 O         -1.9547548731       -1.2786312262       -0.0759533432
 C         -4.5855879704       -1.1517883802        0.1705235345
 C         -5.5811614868       -1.0663433859        1.1250330458
 C         -6.8293573322       -1.5988701567        0.8417566033
 C         -7.0602770248       -2.2017592940       -0.3853855360
 C         -6.0507861185       -2.2807565018       -1.3336271379
 C         -4.8005018921       -1.7516309940       -1.0561720485
 H         -3.9825872287       -1.7968114006       -1.7566156851
 H         -6.2326156330       -2.7523667508       -2.2858449036
 H         -8.0320629591       -2.6154558941       -0.6037330499
 H         -7.6146654025       -1.5417841301        1.5780453143
 H         -5.3519813632       -0.5950503887        2.0671707303
 H         -4.0493074875        1.3285470784       -0.4323571831
 H         -3.3479407493        3.4699969079       -1.2407080574
 H         -1.5589458606        5.1659762854       -1.2242452902
 H          0.6641597998        4.6258253331       -0.3424677158
 H          1.3111447766        2.0111556989        1.8580032039
 C          2.5418956615        3.2928583483        0.7033783726
 C          3.9915238730        2.9465544403        0.5441980225
 C          3.2539857676        3.6142467481       -0.5753099338
 H          3.4798322332        4.6483889508       -0.7905850672
 H          2.9970286993        3.0298848650       -1.4446229043
 H          4.7187240736        3.5194797916        1.0999654448
 H          4.2478859262        1.9023038417        0.4364809565
 H          2.3232010844        4.1276769771        1.3621856113
