  62
        -98.94220904
 C         -1.2435214608       -1.2555589620        0.0986987096
 C         -1.5762870033       -0.1097955325        0.8554038924
 C         -2.6098421578        0.7832143282        0.3018232842
 C         -3.1496172299        0.4809203345       -0.8934326427
 C         -4.2414990008        1.2172104387       -1.6210167535
 C         -5.6350339226        0.9534429495       -1.0214722686
 C         -5.6884706850        0.9064402702        0.5041775271
 H         -6.6846282518        0.5594866052        0.7910637441
 H         -4.9716032793        0.1663538837        0.8646231667
 C         -5.4398053383        2.2387113481        1.2071662682
 H         -6.2214918591        2.9454020642        0.9188374564
 H         -5.5292900288        2.0637129731        2.2822902044
 C         -4.0838233510        2.8917885483        0.9388843606
 H         -3.9805036063        3.7291349783        1.6357394927
 H         -4.0512436541        3.3176937405       -0.0604797856
 C         -2.8746287334        1.9896966922        1.1695196154
 H         -1.9680624551        2.6057798568        1.1007294593
 H         -2.8986675553        1.6165854367        2.1997800477
 H         -6.3203439772        1.7188089107       -1.3889396927
 H         -5.9794865206       -0.0146752518       -1.3925721618
 H         -4.0153059329        2.2797077950       -1.6418751664
 H         -4.2315826981        0.8575814112       -2.6523545212
 O         -2.7794011777       -0.6213045475       -1.6046141384
 C         -1.8069463890       -1.4958341826       -1.1532819983
 O         -1.5447956501       -2.4258780561       -1.9402450390
 H          0.7705314339        0.0120892786       -0.5854439885
 C          1.4171242804       -0.8319754662       -0.7650418787
 C          1.0768235608       -2.0768079795       -0.2547955585
 C          1.9105577335       -3.1535469011       -0.5312191224
 C          3.0431764904       -2.9780684895       -1.3078641375
 C          3.3822504817       -1.7325824724       -1.8051298822
 C          2.5564112036       -0.6482031866       -1.5306134811
 N          2.8490572390        0.6334243880       -2.0178185205
 S          2.4567173943        1.9914255412       -1.1257659012
 O          1.0319452912        2.2127478564       -1.1350469545
 O          3.2599932372        3.0406226497       -1.7177862683
 C          3.0504352279        1.6500341840        0.5215205295
 C          4.4196861063        1.6783166305        0.7110394619
 C          4.9337706309        1.3824288088        1.9619593811
 C          4.0734533629        1.0577249015        3.0005073490
 C          2.7034145290        1.0372129709        2.7957287737
 C          2.1816929436        1.3364014451        1.5460486938
 H          1.1168083160        1.3216116339        1.3731534053
 H          2.0248591753        0.7862353649        3.5954861934
 H          4.4713686144        0.8226020098        3.9750414261
 H          5.9993769367        1.4038636685        2.1237186618
 H          5.0526225122        1.9494410183       -0.1182651185
 H          3.7416169570        0.7264823476       -2.4789985690
 H          4.2671882049       -1.5998432252       -2.4081182737
 H          3.6768918784       -3.8246571628       -1.5239534943
 H          1.6692602468       -4.1306466733       -0.1459979768
 C         -0.1568209523       -2.1812066514        0.6108768112
 H          0.1076070726       -1.7932638927        1.6072156502
 C         -0.6698562542       -3.5979758736        0.7607110284
 C         -0.1350651317       -4.4880729920        1.8416710604
 C         -1.5239271562       -3.9360754272        1.9450030089
 H         -2.3605369952       -4.6035958858        1.8035169358
 H         -1.7105652727       -3.1496567772        2.6618918201
 H         -0.0191515162       -5.5406226096        1.6313003963
 H          0.6192133764       -4.0816331754        2.4983102758
 H         -0.9346609672       -4.0460098273       -0.1900724451
 O         -1.0291127000        0.1626006945        1.9599027887
