  62
        -98.93927473
 C         -2.4757029200       -1.0533872210        0.3578569986
 C         -2.5644907504        0.1485954385        1.1094412293
 C         -3.7881530306        0.9382973183        0.9390660197
 C         -4.7609640804        0.4887682985        0.1259448393
 C         -6.0901295006        1.1497477383       -0.1203448704
 C         -6.0554594008        2.2516116489       -1.1878526598
 C         -5.3590442512        3.5449345689       -0.7632934489
 H         -5.5956786813        4.2991077293       -1.5163408185
 H         -5.7767711514        3.8877701382        0.1837532213
 C         -3.8327812812        3.4304705792       -0.6431851888
 H         -3.4907494309        2.5338008796       -1.1655371893
 H         -3.3623159714        4.2846254197       -1.1354336582
 C         -3.3093233813        3.3929116885        0.7928914712
 H         -2.2229690013        3.2713091988        0.7587660513
 H         -3.5257149016        4.3426811281        1.2872935618
 C         -3.8862645311        2.2559200078        1.6465282305
 H         -4.9221643812        2.4708085974        1.9088277205
 H         -3.2985956312        2.1844736574        2.5651731805
 H         -5.5723937406        1.8551959896       -2.0837359599
 H         -7.0904424708        2.4886058388       -1.4444757497
 H         -6.4719231208        1.5599541476        0.8150117198
 H         -6.7684200303        0.3636707283       -0.4588731710
 O         -4.6473038600       -0.6726984111       -0.5663257814
 C         -3.5050024598       -1.4587960608       -0.4928640618
 O         -3.5588560594       -2.4684014603       -1.2220659124
 O         -1.6643935906        0.5354137783        1.9041947297
 C         -1.2135284698       -1.8770394107        0.5443330082
 C         -0.2040275397       -1.6450190498       -0.5553443815
 C         -0.4986386695       -1.9235323290       -1.8859170817
 C          0.4537296905       -1.7213041282       -2.8678023515
 C          1.7120360104       -1.2456260880       -2.5446560311
 C          2.0209798402       -0.9747721387       -1.2162988509
 C          1.0606481901       -1.1725288196       -0.2337598311
 H          1.3035350299       -0.9384756002        0.7918188491
 N          3.3136536400       -0.5494445086       -0.8649841705
 S          3.5413174296        0.5099376207        0.4281064702
 O          3.3558582796       -0.2116267401        1.6614507697
 O          2.7420614392        1.7014933606        0.2464024608
 C          5.2718729195        0.8806834013        0.2102626106
 C          6.1971149097       -0.0764202486        0.5828811801
 C          7.5446411697        0.1849397119        0.3942585104
 C          7.9430873194        1.3925076923       -0.1600880188
 C          7.0035758591        2.3443696623       -0.5260249183
 C          5.6535276692        2.0883655718       -0.3418317286
 H          4.8880095290        2.8006619817       -0.6049481383
 H          7.3164357389        3.2835007627       -0.9531420577
 H          8.9927010493        1.5938845927       -0.3051376186
 H          8.2780599698       -0.5516648581        0.6800294300
 H          5.8410699199       -0.9953646990        1.0182755895
 H          3.8543967200       -0.2555449879       -1.6675494303
 H          2.4530848004       -1.0902851073       -3.3141048309
 H          0.2122486107       -1.9348501676       -3.8982450517
 H         -1.4805861394       -2.2912458892       -2.1407296721
 H         -0.7682397500       -1.5056199012        1.4782866585
 C         -1.4771387894       -3.3630769209        0.7002105273
 C         -0.4420029492       -4.2128803710        1.3712199669
 C         -1.7391672993       -3.9233344918        2.0640668769
 H         -2.4625567891       -4.7185665921        2.1631401064
 H         -1.7298571696       -3.2348425423        2.8968751073
 H         -0.2716455088       -5.2096092707        0.9945800763
 H          0.4481745206       -3.7205568010        1.7343163773
 H         -2.0241339991       -3.7915955206       -0.1291969630
