  62
        -98.94342989
 C         -0.8436664207       -1.6731209695       -0.3179575505
 C         -1.1794564702       -0.3424570691       -0.6717162994
 C         -2.3046920596        0.2499429309        0.0720469616
 C         -2.8532366593       -0.4230226195        1.0973819515
 C         -4.0045497286        0.0631558504        1.9289109224
 C         -5.3476727292       -0.4122225585        1.3577848628
 C         -5.5034788099       -0.1576096875       -0.1413773369
 H         -4.7802954105       -0.7723511474       -0.6820585177
 H         -6.4988893802       -0.5035918868       -0.4281139366
 C         -5.3316928494        1.3101891627       -0.5562474160
 H         -5.4450007086        1.9561620922        0.3150449445
 H         -6.1266109597        1.5700383236       -1.2584416554
 C         -4.0042426796        1.6220959126       -1.2498028965
 H         -3.8422001404        0.9112793730       -2.0637222871
 H         -4.0808230194        2.6176846129       -1.6943378258
 C         -2.7597331491        1.6178649614       -0.3523749472
 H         -1.9306225693        2.0354863414       -0.9303324574
 H         -2.9289803984        2.2550505109        0.5185271933
 H         -6.1506060986        0.0897994815        1.9007714036
 H         -5.4373177396       -1.4865146686        1.5349476322
 H         -3.8864304983       -0.3318830803        2.9396401921
 H         -3.9787483981        1.1504566404        1.9724875531
 O         -2.4407539297       -1.6618663900        1.4713045004
 C         -1.4486089504       -2.3176346900        0.7635143594
 O         -1.1950456107       -3.4658962604        1.1844229885
 H          1.3178903401       -0.1476956107       -0.1530516206
 C          1.9443532699       -0.9866752811        0.1024605185
 C          1.5602595291       -2.2663846607       -0.2708644022
 C          2.3828684287       -3.3354587613        0.0628254867
 C          3.5563552892       -3.1239415724        0.7654998162
 C          3.9193325700       -1.8500656628        1.1648370168
 C          3.1013095004       -0.7752850522        0.8352916280
 N          3.4283716312        0.5346716174        1.2133017687
 S          2.2069122619        1.6136612177        1.5990646101
 O          2.8586465129        2.6084191469        2.4288218104
 O          1.0723963019        0.9504902579        2.2024463902
 C          1.7468779515        2.3882771690        0.0643056608
 C          0.5762118518        3.1185834195        0.0538651320
 C          0.2086623315        3.7836237705       -1.1042590074
 C          1.0122330608        3.7009912909       -2.2298473679
 C          2.1836129505        2.9617784503       -2.2034348890
 C          2.5624366008        2.3027857493       -1.0449533697
 H          3.4651272706        1.7162254889       -0.9971722906
 H          2.8028928100        2.8920401906       -3.0833294394
 H          0.7188270506        4.2103180216       -3.1342572974
 H         -0.7047346683        4.3569930609       -1.1252248265
 H         -0.0296022177        3.1378595392        0.9465802323
 H          4.2244585516        0.6265294266        1.8269677483
 H          4.8221336904       -1.6872258636        1.7334728464
 H          4.1871218990       -3.9617471628        1.0212375352
 H          2.0869806881       -4.3374381210       -0.2113902339
 C          0.2579384386       -2.4696280496       -1.0011729016
 H         -0.0256519619       -3.5277467996       -0.8784608922
 C          0.3654745179       -2.1980319587       -2.4947187415
 C          1.4625889879       -1.3865004988       -3.1076857015
 C          1.4353949971       -2.8707287586       -3.3034253625
 H          1.1774886764       -3.2626468479       -4.2756072926
 H          2.1666922771       -3.4581358193       -2.7690064533
 H          1.2030442378       -0.7438979881       -3.9344237810
 H          2.2109940085       -0.9693318096       -2.4527713817
 H         -0.6121498423       -2.1107963379       -2.9574500209
 O         -0.5921904004        0.3317102312       -1.5551062293
