  62
        -98.93982899
 C         -2.2084602888       -0.7946666186        0.1031003023
 C         -2.4652102606        0.2956341105        0.9677673115
 C         -3.1029112756        1.4678658919        0.3541717779
 C         -3.3599133994        1.4589757629       -0.9668959509
 C         -4.0499144794        2.5633960970       -1.7127961541
 C         -5.5681597782        2.3400161091       -1.7549338449
 C         -6.1837150997        2.0225732556       -0.3921048978
 H         -7.2606872643        1.9156250386       -0.5385822032
 H         -5.8090606504        1.0557322614       -0.0481702990
 C         -5.9171356482        3.0816130894        0.6867413829
 H         -5.6094501570        4.0176217470        0.2192372096
 H         -6.8482353314        3.2776948450        1.2225369756
 C         -4.8790651689        2.6731290394        1.7336031185
 H         -5.1345020091        1.6906539155        2.1386840302
 H         -4.9276298058        3.3893719503        2.5581608157
 C         -3.4240271739        2.6316018789        1.2496638073
 H         -3.1717105032        3.5753348518        0.7618519701
 H         -2.7845283350        2.5175306105        2.1300234925
 H         -6.0370962042        3.2346285182       -2.1685860771
 H         -5.7764769359        1.5048442038       -2.4275666227
 H         -3.8255222265        3.5145760695       -1.2340569645
 H         -3.6655517318        2.5804216761       -2.7339762401
 O         -3.0567625007        0.4108858987       -1.7741959627
 C         -2.4811416209       -0.7439860761       -1.2644310032
 O         -2.2650073029       -1.6271578870       -2.1143775213
 O         -2.1673161650        0.2917074070        2.1938307637
 C         -1.5646006528       -2.0460678653        0.6727412200
 C         -0.2075392723       -2.2537060799        0.0449165157
 C          0.1949826392       -3.4439544156       -0.5439710019
 C          1.4567231601       -3.5549840022       -1.1037769266
 C          2.3409347429       -2.4927670104       -1.0871260806
 C          1.9543516593       -1.3008469823       -0.4862323321
 C          0.6920977315       -1.1942929206        0.0770711486
 H          0.3887884191       -0.2658665839        0.5463800421
 N          2.8362210590       -0.1978606338       -0.4714560096
 S          4.3854300905       -0.4631724025        0.1527937711
 O          5.1230951808       -1.2795715465       -0.7765683750
 O          4.2987547817       -0.9672614391        1.5067406741
 C          5.0345161626        1.1954578885        0.1472905878
 C          5.0328716264        1.9325443428        1.3158581871
 C          5.5223429414        3.2291989716        1.2907009108
 C          5.9987005569        3.7639688613        0.1032864648
 C          5.9926632636        3.0115058244       -1.0620123919
 C          5.5062045522        1.7141982169       -1.0434566194
 H          5.4898842447        1.0895473223       -1.9211585019
 H          6.3655118107        3.4307996476       -1.9825580592
 H          6.3795200986        4.7729577848        0.0868446654
 H          5.5303967024        3.8155749645        2.1954421827
 H          4.6609368789        1.4736151031        2.2181132041
 H          2.4213743880        0.5904566165        0.0092125108
 H          3.3254268726       -2.5742876549       -1.5174176386
 H          1.7552033173       -4.4844323520       -1.5650202402
 H         -0.4788276716       -4.2842359313       -0.5720489965
 H         -1.4117087966       -1.8345249874        1.7418775752
 C         -2.4908456286       -3.2357110479        0.5408945030
 C         -2.3820047210       -4.3822777250        1.4998230770
 C         -3.5501203041       -3.4472890068        1.5793074046
 H         -4.5192879623       -3.8021765803        1.2624044695
 H         -3.5892898739       -2.7448610943        2.3992359680
 H         -2.5510461118       -5.3822953064        1.1301255675
 H         -1.6281273494       -4.3188379025        2.2700414636
 H         -2.7510972232       -3.4502970905       -0.4893196295
