  62
        -98.93870975
 C          2.1731877601        0.9164718996        0.4813148603
 C          2.5142651902        0.3235305901       -0.7567402599
 C          3.3665179503       -0.8787856799       -0.6907517902
 C          3.7058815801       -1.3778971003        0.5099549197
 C          4.6067242501       -2.5477026804        0.7937689594
 C          6.0514216801       -2.0731137805        1.0264059997
 C          6.8964281802       -1.9351885500       -0.2395033302
 H          7.8406876902       -1.4685616801        0.0502591801
 H          7.1277469403       -2.9300140099       -0.6258373405
 C          6.2647523703       -1.1095623597       -1.3634803899
 H          7.0672095604       -0.7757861394       -2.0241113597
 H          5.7969900003       -0.2160380398       -0.9462604297
 C          5.2389852904       -1.8995202294       -2.1902104403
 H          5.3346590904       -2.9597475095       -1.9562426307
 H          5.4731312506       -1.7948503590       -3.2515386603
 C          3.7758452404       -1.4632875295       -2.0150138403
 H          3.5369879405       -0.6844380092       -2.7460206201
 H          3.1193214205       -2.3107637594       -2.2397620207
 H          6.5501822900       -2.7822251107        1.6901546495
 H          6.0079370600       -1.1130732706        1.5471842700
 H          4.5556017802       -3.2771982901       -0.0090857309
 H          4.2391496100       -3.0094091707        1.7127069592
 O          3.2890168500       -0.8188455507        1.6800336698
 C          2.5252664300        0.3326725992        1.6978743901
 O          2.2190088298        0.7298338788        2.8417840302
 O          2.1436614504        0.7771566004       -1.8704585798
 C          1.3385169001        2.1863544696        0.5312021706
 C         -0.0561017499        1.8740745397        0.0441778703
 C         -0.6222170498        2.4238811801       -1.0971219795
 C         -1.8975374897        2.0539171202       -1.4900224398
 C         -2.6352381198        1.1458748200       -0.7532016502
 C         -2.0779312399        0.5906669796        0.3921435097
 C         -0.7985277499        0.9568352895        0.7790339799
 H         -0.3579828100        0.5207659992        1.6678154898
 N         -2.8259757100       -0.3141211607        1.1658325793
 S         -3.5940813299       -1.5890243804        0.3894396488
 O         -3.7573238200       -2.6047553008        1.4071194284
 O         -2.8897266997       -1.9874506000       -0.8076445413
 C         -5.1927253498       -0.9243123803       -0.0276744512
 C         -5.6496950497       -0.9910512499       -1.3292569313
 C         -6.8994170597       -0.4703883598       -1.6279692912
 C         -7.6656567498        0.1038724998       -0.6253536911
 C         -7.1935174899        0.1597106294        0.6777035690
 C         -5.9459921099       -0.3601346507        0.9833977289
 H         -5.5434169001       -0.3388133210        1.9823289090
 H         -7.7921105400        0.6069578591        1.4548672890
 H         -8.6365460998        0.5103690999       -0.8607837911
 H         -7.2681008995       -0.5137997095       -2.6401937413
 H         -5.0156105396       -1.4402112196       -2.0771453113
 H         -2.3378896701       -0.6409592710        1.9873714792
 H         -3.6277037097        0.8574060200       -1.0583303904
 H         -2.3242991696        2.4818025405       -2.3842356897
 H         -0.0612656097        3.1292753503       -1.6869350292
 H          1.2672232499        2.4541753692        1.5951520907
 C          2.0150184401        3.3181579199       -0.2107814789
 C          1.6482845801        4.7352834998        0.1082510315
 C          2.9814147100        4.1937932296        0.5264632815
 H          3.8646245801        4.5361323098        0.0083547317
 H          3.1447008299        3.9848869193        1.5740315314
 H          1.6168664801        5.4541017500       -0.6961232083
 H          0.9046235400        4.8968867395        0.8738386715
 H          2.2537354602        3.0683887102       -1.2372230990
