  62
        -98.93873221
 C         -2.5704129085       -1.3679912020        0.1424574249
 C         -2.5314564750       -0.3177229184       -0.8035218170
 C         -3.5290760630        0.7569648904       -0.6370241768
 C         -4.4074902114        0.6985369031        0.3808871131
 C         -5.5492849077        1.6141112014        0.7706822096
 C         -5.6716742596        3.0114565110        0.1689109404
 C         -4.5726149341        3.9873128842        0.5889356124
 H         -4.7085629453        4.2294500821        1.6459145553
 H         -4.6971276412        4.9097911598        0.0177948803
 C         -3.1409341270        3.4857433600        0.4150232097
 H         -2.9741353774        2.6164456217        1.0547543052
 H         -2.4644853147        4.2714562197        0.7626922724
 C         -2.7389353409        3.1312826364       -1.0153255596
 H         -1.6619913099        2.9365369134       -1.0147181528
 H         -2.9224618820        3.9846944719       -1.6714007910
 C         -3.4345445166        1.8954576736       -1.6115050210
 H         -2.8243548053        1.5368436151       -2.4457485468
 H         -4.4151140426        2.1467817186       -2.0083933309
 H         -6.6240288650        3.4183273012        0.5194657732
 H         -5.7351399902        2.9514177319       -0.9135367816
 H         -5.5035257260        1.6972453945        1.8611329993
 H         -6.4654257459        1.0582574010        0.5426832462
 O         -4.4090323246       -0.3405952476        1.2666137984
 C         -3.4953856567       -1.3734031426        1.1879904972
 O         -3.6091398788       -2.2274979047        2.0893031204
 O         -1.7163343246       -0.2680234462       -1.7630130964
 C         -1.5735325230       -2.5167220226        0.1077937474
 C         -0.2175098042       -1.9644950971        0.4743121910
 C          0.1209414419       -1.8243047216        1.8174157911
 C          1.3242251167       -1.2523515770        2.1854693800
 C          2.2098484072       -0.7966722917        1.2237962497
 C          1.8728494311       -0.9156491650       -0.1171292186
 C          0.6753408949       -1.5148999742       -0.4855389134
 H          0.4206837288       -1.5886397049       -1.5307137532
 N          2.7564683691       -0.4397373876       -1.1016581620
 S          3.3869195426        1.1049514603       -0.9111794342
 O          2.5076093619        1.9560896482       -0.1432588984
 O          3.7101275584        1.5508965050       -2.2492013318
 C          4.9038406177        0.8272864223       -0.0185304631
 C          5.8028130146       -0.0873821431       -0.5314395572
 C          6.9919780106       -0.3086771386        0.1445011524
 C          7.2629098628        0.3870320166        1.3134308362
 C          6.3521150916        1.3048356641        1.8134989980
 C          5.1598834302        1.5297291005        1.1426172867
 H          4.4194166832        2.2292312516        1.4971797792
 H          6.5642149370        1.8453236972        2.7220395486
 H          8.1892186795        0.2132114826        1.8378733837
 H          7.7026217635       -1.0217542330       -0.2412656065
 H          5.5557716084       -0.6043136423       -1.4435355513
 H          2.4058972340       -0.5619378867       -2.0413334279
 H          3.1435558311       -0.3366711321        1.5035997841
 H          1.5749112714       -1.1550283713        3.2309362800
 H         -0.5821579481       -2.1560676250        2.5690520039
 H         -1.8859009393       -3.2062947728        0.9030143352
 C         -1.5984715884       -3.2563197571       -1.2134576808
 C         -0.9425609811       -4.6000397514       -1.3096733767
 C         -2.4366535902       -4.4909153979       -1.3436495811
 H         -2.9470292277       -4.6695606255       -2.2782419560
 H         -2.9937370378       -4.8104613511       -0.4749974833
 H         -0.4250757442       -4.8582043143       -2.2208751100
 H         -0.4836562871       -4.9936782826       -0.4154120608
 H         -1.5483615017       -2.6033707648       -2.0755076404
