  62
        -98.94182715
 C         -2.3784547295       -1.0782591874        0.1335834463
 C         -3.6324620702       -0.9276290633        0.7835742974
 C         -4.5999687705       -0.0363712474        0.1359666885
 C         -4.2643921764        0.5939848510       -1.0036729444
 C         -5.1463862855        1.5186989629       -1.7980403082
 C         -5.1522679458        2.9666295632       -1.2889991329
 C         -5.9048291880        3.1918864230        0.0230840854
 H         -6.0158126669        4.2709802075        0.1466280158
 H         -6.9066389850        2.7687286973       -0.0569364558
 C         -5.2004623147        2.6231943260        1.2628745404
 H         -4.1519173261        2.4256808296        1.0271261519
 H         -5.2128095861        3.3677294242        2.0620871678
 C         -5.8320914374        1.3482512048        1.8220320396
 H         -6.8390375470        1.5667726930        2.1842415336
 H         -5.2330012412        1.0137783553        2.6726968117
 C         -5.9153319703        0.1912757989        0.8178689883
 H         -6.1687266883       -0.7197573014        1.3654583295
 H         -6.6955839399        0.3865094034        0.0824938248
 H         -5.6199725696        3.5811355152       -2.0618258191
 H         -4.1181728139        3.3021123500       -1.1791902851
 H         -6.1658123968        1.1317315537       -1.8102829839
 H         -4.7601412928        1.5150545728       -2.8197006373
 O         -3.0491383404        0.4384441494       -1.5896421197
 C         -2.0694072535       -0.3799574190       -1.0354785997
 O         -1.0089910629       -0.3900479467       -1.6889188942
 O         -3.9303339902       -1.5163166624        1.8561241397
 C         -1.3587631041       -1.9812200750        0.8075829344
 C         -0.0531222313       -1.2475170260        0.9698652365
 C          0.0911008354       -0.3288877879        2.0053199848
 C          1.2604376161        0.3936929529        2.1488530713
 C          2.3049821631        0.2242108614        1.2566454208
 C          2.1614340131       -0.6730683205        0.2074347315
 C          0.9962510841       -1.4184226657        0.0818357584
 H          0.8897752768       -2.1051353874       -0.7434371531
 N          3.2087036923       -0.8460533113       -0.7118575158
 S          4.0309661931        0.5011883320       -1.2796654111
 O          3.2091721309        1.6888563250       -1.2795090381
 O          4.5780903803        0.0949342016       -2.5562559378
 C          5.3700389897        0.6859666445       -0.1174417716
 C          5.5900995052        1.9049031225        0.4933524439
 C          6.6437066984        2.0280076091        1.3859882047
 C          7.4555974883        0.9357293426        1.6498334704
 C          7.2236444534       -0.2810299015        1.0258369069
 C          6.1728193144       -0.4100394850        0.1319610153
 H          5.9612673105       -1.3360234728       -0.3758856873
 H          7.8573494180       -1.1282311836        1.2332106878
 H          8.2740063943        1.0336333902        2.3454632033
 H          6.8253818515        2.9736281457        1.8711600433
 H          4.9298099502        2.7256778077        0.2612425951
 H          2.9738442137       -1.4660623595       -1.4736867801
 H          3.2135466834        0.7956847400        1.3529837199
 H          1.3604969699        1.0996199997        2.9593733591
 H         -0.7313542633       -0.1812064761        2.6917539064
 H         -1.7782192459       -2.1566668835        1.8114368066
 C         -1.1940927934       -3.3510531471        0.1661730915
 C         -2.3881293546       -4.0932264588       -0.3532469122
 C         -1.3408847869       -3.5996930847       -1.3038073398
 H         -0.6859051056       -4.3256243368       -1.7640736470
 H         -1.5742798544       -2.7615048878       -1.9413950334
 H         -2.4592193575       -5.1543050599       -0.1681052855
 H         -3.3381903572       -3.5794051019       -0.3315133037
 H         -0.4444852677       -3.9437283117        0.6821628584
