  62
        -98.93764189
 C          1.5780656014        1.3671342725        0.5118177713
 C          1.5392135234        0.3542917936       -0.4792123198
 C          2.4680509535       -0.7701448849       -0.2821861809
 C          3.2711671767       -0.8080089843        0.7948932422
 C          4.2435161091       -1.9016892247        1.1437936337
 C          5.6053561983       -1.7709483222        0.4481481454
 C          5.6049490479       -2.0882733080       -1.0478992582
 H          6.6486841050       -2.1672496055       -1.3586395576
 H          5.1429432161       -3.0623024801       -1.2123508952
 C          4.9099074219       -1.0323679961       -1.9190100134
 H          4.8073076604       -0.1034766189       -1.3531681628
 H          5.5336455161       -0.8092249784       -2.7875838352
 C          3.5354825955       -1.4473769668       -2.4443047338
 H          3.6435840701       -2.2969833615       -3.1224447949
 H          3.1209340835       -0.6125294526       -3.0152309424
 C          2.5271189260       -1.8217889398       -1.3501831840
 H          2.7844684391       -2.7898229983       -0.9203222857
 H          1.5380927655       -1.8947825264       -1.8094791690
 H          6.2920771224       -2.4610569237        0.9437143730
 H          5.9825953528       -0.7577801427        0.6053298447
 H          4.4020391394       -1.8432165550        2.2227561682
 H          3.8065633003       -2.8726464902        0.9084409413
 O          3.2714934249        0.1758952110        1.7313777106
 C          2.4480094473        1.2788705068        1.6071116271
 O          2.5764755965        2.1085295675        2.5297774729
 O          0.7831055034        0.3478436692       -1.4838638096
 C          0.6841418040        2.6064575551        0.5081148234
 C         -0.7606753444        2.1888249279        0.6242493079
 C         -1.3596107607        2.2071856634        1.8825735204
 C         -2.6460238630        1.7354450722        2.0703048674
 C         -3.3646053365        1.2103929121        1.0103352650
 C         -2.7762320085        1.1824954066       -0.2457053906
 C         -1.4990385303        1.6905721797       -0.4382034709
 H         -1.0623627278        1.6288124945       -1.4196759559
 N         -3.4612605439        0.5843679414       -1.3216446217
 S         -4.0600337923       -0.9511729175       -1.0219027683
 O         -4.0108511442       -1.6444258402       -2.2906003771
 O         -5.3699308517       -0.8403493621       -0.4269127448
 C         -2.9442580871       -1.7046475902        0.1549765451
 C         -1.5866239066       -1.7028915374       -0.0985814804
 C         -0.7330704036       -2.2766743614        0.8301005056
 C         -1.2450976873       -2.8479573457        1.9844510970
 C         -2.6110394637       -2.8498608974        2.2199730688
 C         -3.4691122097       -2.2696800718        1.2999482740
 H         -4.5362680356       -2.2368162038        1.4488392603
 H         -3.0077532998       -3.2948885392        3.1182088694
 H         -0.5729183400       -3.2898959614        2.7030838687
 H          0.3306598031       -2.2596417147        0.6488101441
 H         -1.1942023802       -1.2463598878       -0.9939051885
 H         -2.9246079945        0.5864868186       -2.1781193990
 H         -4.3583368391        0.8119286700        1.1378866832
 H         -3.0887832644        1.7625340718        3.0540924688
 H         -0.7949796403        2.5816239833        2.7247138760
 H          0.9320529820        3.1103600447        1.4537925986
 C          1.0590511367        3.6106634112       -0.5771976934
 C          0.9196821914        3.4104049563       -2.0558397930
 C          0.0469763276        4.4025022565       -1.3503165567
 H          0.2334603197        5.4540467852       -1.5100896876
 H         -0.9948778298        4.1572834933       -1.2120626707
 H          1.7174530144        3.7863822139       -2.6815757215
 H          0.4990675771        2.4881566141       -2.4186217142
 H          1.9541503784        4.1516325468       -0.2796799839
