  62
        -98.94292289
 C         -2.3849738600       -0.0105653181        0.4320139544
 C         -1.7723289864        0.8256663853        1.4009408223
 C         -1.5648085520        2.2255789148        1.0233691109
 C         -1.9134627291        2.6359214584       -0.2091565358
 C         -1.7613654326        4.0297243123       -0.7548149498
 C         -0.3538734480        4.3302251954       -1.2889311896
 C          0.7133529042        4.5544210820       -0.2166023944
 H          1.5787773098        4.9953575792       -0.7154365380
 H          0.3501589697        5.2802675735        0.5124157390
 C          1.1612804543        3.2733041301        0.5008459978
 H          2.2522195573        3.2582893695        0.5711672168
 H          0.8745044047        2.4061938484       -0.0989549715
 C          0.6142559885        3.1146014751        1.9193844969
 H          1.0147799324        3.9077746628        2.5550972169
 H          0.9634308173        2.1576085089        2.3130520996
 C         -0.9160916858        3.1403142429        2.0191342261
 H         -1.1983540976        2.7935302056        3.0166034230
 H         -1.2832750132        4.1580023495        1.8859554857
 H         -0.4220228744        5.2324485976       -1.9018855057
 H         -0.0438850010        3.5062776065       -1.9374238161
 H         -2.0256869491        4.7581328496        0.0128662917
 H         -2.4708167782        4.1199284866       -1.5804186059
 O         -2.4807840497        1.8044989863       -1.1189983569
 C         -2.6951711290        0.4592095104       -0.8445774882
 O         -3.1742688326       -0.1728774004       -1.8066470950
 O         -1.4217695104        0.4120383098        2.5390337047
 C         -2.5425269380       -1.4732094177        0.8204033401
 C         -1.2162339215       -2.1516249801        0.5879894971
 C         -0.5814623050       -2.8936358811        1.5758127483
 C          0.6971870893       -3.3877751248        1.3769069894
 C          1.3803158666       -3.1155631653        0.2046535278
 C          0.7462891956       -2.3857144684       -0.7916873947
 C         -0.5516394487       -1.9413015718       -0.6132794380
 H         -1.0296278198       -1.3669638559       -1.3944040612
 N          1.4986045585       -1.9862747587       -1.9389933951
 S          1.9689173453       -0.3697750130       -1.7487407033
 O          0.8248640922        0.5020328476       -1.5864427177
 O          2.8201715002       -0.0683148878       -2.8793501226
 C          2.9204079240       -0.4333053151       -0.2497895889
 C          4.2650742124       -0.7382233799       -0.3268700642
 C          4.9968005015       -0.8366753879        0.8457597458
 C          4.3722569482       -0.6363770372        2.0677689376
 C          3.0205032990       -0.3332899312        2.1274461673
 C          2.2833514084       -0.2307876476        0.9586714927
 H          1.2284597858       -0.0008461315        0.9710160407
 H          2.5286732655       -0.1816520728        3.0752027392
 H          4.9403074327       -0.7168731557        2.9810662078
 H          6.0480186669       -1.0719659957        0.8037777511
 H          4.7040083487       -0.8840645631       -1.3000973606
 H          0.9604085021       -2.0467474624       -2.7943751973
 H          2.3953987738       -3.4450539173        0.0549908386
 H          1.1784133931       -3.9591497160        2.1550931953
 H         -1.0847378399       -3.0542713850        2.5176773094
 H         -2.7218237690       -1.4658043830        1.9075994918
 C         -3.7170743723       -2.1792768153        0.1652638184
 C         -3.5554785378       -3.2331627618       -0.8851790014
 C         -3.9950285931       -3.6165931107        0.4941203890
 H         -5.0184812057       -3.9236668547        0.6453167144
 H         -3.2797787149       -4.1300616146        1.1186950631
 H         -4.2750388204       -3.2503404499       -1.6893918490
 H         -2.5560519760       -3.4971959861       -1.1948621867
 H         -4.5766063161       -1.5263245854        0.0587053099
