  62
        -98.94945588
 C         -2.0420255008       -0.4657652492       -0.3141329173
 C         -1.3434364328       -1.3641877888       -1.1535671745
 C         -0.9099117438       -2.6199430778       -0.5308395712
 C         -1.1421341980       -2.8278004296        0.7781675419
 C         -0.7609554861       -4.0552180670        1.5609165977
 C          0.6949204761       -4.0489852855        2.0470718113
 C          1.7395900189       -4.3345413730        0.9675693366
 H          2.6816263943       -4.5386189030        1.4805335707
 H          1.4611512560       -5.2373236851        0.4219457788
 C          1.9584930568       -3.1780866838       -0.0175794147
 H          3.0307940763       -3.0286142541       -0.1694545548
 H          1.5725531610       -2.2543707169        0.4216515332
 C          1.3325176423       -3.3938442790       -1.3954492786
 H          1.5378895516       -2.5125987273       -2.0066570286
 H          1.8053976206       -4.2523916584       -1.8781182507
 C         -0.1845764920       -3.6218142005       -1.3803801860
 H         -0.5554253177       -3.5142642369       -2.4031089516
 H         -0.4061082253       -4.6315400042       -1.0342793607
 H          0.7846205469       -4.8128698913        2.8233207012
 H          0.9055483365       -3.0789382734        2.5052735852
 H         -1.4165908192       -4.0812819870        2.4340595352
 H         -0.9433619787       -4.9482616757        0.9618413372
 O         -1.7923456176       -1.9269404288        1.5599445916
 C         -2.2470979788       -0.7249212020        1.0414721903
 O         -2.8232593635        0.0057507561        1.8711071436
 H          0.0186401191        1.0634394102       -0.2189822568
 C         -0.5355194474        1.8939822838        0.1853775357
 C         -1.8965939649        1.9829065676       -0.0764886661
 C         -2.6001915243        3.0645597951        0.4341112849
 C         -1.9565114225        3.9979153136        1.2296535189
 C         -0.6176526076        3.8635467066        1.5463944903
 C          0.1009218447        2.7936716487        1.0209459551
 N          1.4598617647        2.6255809393        1.3121843488
 S          2.2415061371        1.1483618722        1.2334288348
 O          1.3605055780        0.0320505803        1.4805497876
 O          3.3551623011        1.2954172547        2.1474810826
 C          2.8764287533        1.1258693226       -0.4309271466
 C          3.9492767963        1.9515404742       -0.7095406097
 C          4.4579246305        1.9840459203       -1.9971583093
 C          3.8863987389        1.1958433984       -2.9851878100
 C          2.8127587936        0.3706881400       -2.6907889618
 C          2.3021730352        0.3329682458       -1.4024509853
 H          1.4672142852       -0.3028395083       -1.1510760679
 H          2.3594048936       -0.2422215487       -3.4540774972
 H          4.2790848640        1.2218177412       -3.9893561558
 H          5.2951990093        2.6228171190       -2.2275807773
 H          4.3690609931        2.5385036815        0.0903096171
 H          1.8236115078        3.2155379724        2.0446545115
 H         -0.1312171395        4.5717778634        2.1996315059
 H         -2.5141183734        4.8309372443        1.6306256249
 H         -3.6533296597        3.1676474992        0.2299652774
 C         -2.5186593274        0.8638308944       -0.8753408421
 H         -2.1334861517        0.9070586510       -1.9050209175
 C         -4.0311150250        0.9147835488       -0.9146156995
 C         -4.7331999313        1.7520958128       -1.9405975616
 C         -4.7495138503        0.2581445558       -2.0538605119
 H         -5.6699139877       -0.2673720313       -1.8480871435
 H         -4.1438415063       -0.2061380099       -2.8182937773
 H         -4.1216981961        2.3057485066       -2.6366881413
 H         -5.6472446516        2.2529116173       -1.6593638758
 H         -4.4735243636        0.8306833102        0.0719866038
 O         -1.0946838035       -1.1298726518       -2.3680288769
