  62
        -98.94584903
 C         -1.3331176696       -1.2067211502        0.0125763196
 C         -1.5414577407       -0.0439840103        0.7984060495
 C         -2.5386755111        0.9126358390        0.3012478191
 C         -3.1711958405        0.6554422086       -0.8582102812
 C         -4.2427567408        1.5152449379       -1.4620000717
 C         -5.6362565507        1.0712494870       -0.9955181623
 C         -5.7518434912        0.8894345169        0.5180097377
 H         -6.7847404511        0.6078897262        0.7339800973
 H         -5.1205719708        0.0529323473        0.8266549780
 C         -5.3797088524        2.1331329472        1.3375134078
 H         -6.1299675428        2.2752100967        2.1182040675
 H         -5.4045686827        3.0181308072        0.7006914178
 C         -4.0213821226        2.0501985381        2.0369639684
 H         -3.9577597735        2.8724446782        2.7548168484
 H         -3.9569158922        1.1175809982        2.6033859085
 C         -2.7928634723        2.1456180489        1.1231694189
 H         -2.8820599926        3.0273295288        0.4845456289
 H         -1.9133069527        2.2708046295        1.7621320793
 H         -5.8742856499        0.1181860568       -1.4733215623
 H         -6.3651424310        1.8110129465       -1.3313461926
 H         -4.0701464216        2.5534009380       -1.1850426816
 H         -4.1869957903        1.4225276379       -2.5477556517
 O         -2.9347817894       -0.4577020713       -1.5930246711
 C         -2.0246281390       -1.4216414807       -1.1810232007
 O         -1.9439630280       -2.3899756106       -1.9590304706
 H          1.9387579397       -0.9524142779        1.3248922210
 C          2.0383694904       -1.3474978479        0.3250567210
 C          0.9863052911       -2.0431890586       -0.2548333694
 C          1.1469332419       -2.5483498386       -1.5411807193
 C          2.3346997121       -2.3569643878       -2.2226874188
 C          3.3766787514       -1.6512881371       -1.6466765284
 C          3.2253480905       -1.1392097071       -0.3638642885
 N          4.2656391598       -0.4216340564        0.2501640620
 S          3.9157632785        0.9982373734        1.0663254418
 O          5.1889343880        1.6803517742        1.1542420723
 O          3.2697355082        0.7040037330        2.3184801815
 C          2.8306900684        1.8858063526       -0.0354170187
 C          1.4630935783        1.8457230717        0.1407884707
 C          0.6530319783        2.4834306211       -0.7866129596
 C          1.2181781183        3.1478964615       -1.8630748294
 C          2.5957706283        3.1867536324       -2.0204316988
 C          3.4102689884        2.5452881030       -1.1029074585
 H          4.4852708884        2.5582285037       -1.1831551780
 H          3.0332213683        3.7101229327       -2.8552057587
 H          0.5798019883        3.6395882910       -2.5800870597
 H         -0.4178724718        2.4449973504       -0.6595284001
 H          1.0414325783        1.3279375215        0.9880891005
 H          5.0859697699       -0.3074887859       -0.3279187777
 H          4.3010444115       -1.4997851265       -2.1829763480
 H          2.4476817128       -2.7550955177       -3.2196662287
 H          0.3272990125       -3.0687744191       -2.0099530396
 C         -0.3022980692       -2.2046742295        0.5161465701
 H         -0.1021451898       -1.9093421993        1.5554273402
 C         -0.7976674182       -3.6367168298        0.5152121699
 C         -0.0737709279       -4.6499217093        1.3485153602
 C         -1.4415633784       -4.1878537502        1.7503469897
 H         -2.2714257279       -4.8695485307        1.6386809593
 H         -1.5274895392       -3.5331715502        2.6057593096
 H          0.0381425129       -5.6510494792        0.9617651603
 H          0.7684894816       -4.3063067787        1.9306090006
 H         -1.1989079276       -3.9591164101       -0.4363233202
 O         -0.9209065113        0.1841624302        1.8726461198
