  62
        -98.93770220
 C         -1.5471208640       -1.8776377367        0.0637751780
 C         -1.6856007136       -0.9272708444       -0.9760351771
 C         -2.7282978136        0.0945615948       -0.7848191731
 C         -3.4662595511        0.0870143283        0.3393254405
 C         -4.4815554367        1.1251076513        0.7228921368
 C         -3.7619602090        2.3906381378        1.2323281038
 C         -3.9656419696        3.6254328290        0.3547791116
 H         -4.9726226904        4.0148296014        0.5187749896
 H         -3.2608791978        4.3885660715        0.6911965314
 C         -3.7866250474        3.4109439108       -1.1514520470
 H         -3.6879542378        4.3998999954       -1.6039256762
 H         -4.6925298152        2.9689223568       -1.5690903580
 C         -2.5844126310        2.5555384626       -1.5716353472
 H         -1.8049817859        2.5814384400       -0.8105795549
 H         -2.1599821118        2.9909821309       -2.4785010356
 C         -2.9230322332        1.0887469857       -1.8964729996
 H         -3.9490232123        1.0218997929       -2.2688532177
 H         -2.2602316081        0.7483488742       -2.6972003790
 H         -4.1090327992        2.6252259619        2.2397364698
 H         -2.6959884765        2.1666458154        1.3083247999
 H         -5.1113695003        1.3592262592       -0.1324508561
 H         -5.1047430113        0.6977387345        1.5086312137
 O         -3.3057919091       -0.8411091352        1.3168755407
 C         -2.3567302769       -1.8396645428        1.2043086719
 O         -2.3293621272       -2.6282349790        2.1698899073
 H          1.0732820659       -1.3239241265       -1.3821680499
 C          1.5247445849       -1.6008871064       -0.4414426928
 C          0.8437499392       -2.4586247971        0.4112663965
 C          1.4232274181       -2.7792863135        1.6332947487
 C          2.6566282611       -2.2594423950        1.9865642595
 C          3.3349265846       -1.4082789375        1.1323139544
 C          2.7561096515       -1.0697068563       -0.0849415399
 N          3.4259290383       -0.1992908195       -0.9680196540
 S          3.8951339191        1.3123001739       -0.4338423471
 O          4.3664134967        2.0044538052       -1.6107080943
 O          4.8444456683        1.1577261977        0.6394836341
 C          2.4215859125        2.1098019401        0.1814111112
 C          1.7919168009        3.0491998376       -0.6104818686
 C          0.6515862867        3.6748100604       -0.1336048669
 C          0.1535220598        3.3390890565        1.1161603442
 C          0.7871337299        2.3814486948        1.8928218111
 C          1.9362202947        1.7624809201        1.4267269803
 H          2.4614547748        1.0267333113        2.0135146583
 H          0.3932534144        2.1161707399        2.8612953607
 H         -0.7316456789        3.8297256216        1.4908195189
 H          0.1561667543        4.4199461297       -0.7352895212
 H          2.2156217470        3.2826232099       -1.5739138892
 H          2.9569366898       -0.1098232883       -1.8586950714
 H          4.2918059198       -0.9882672140        1.3974029490
 H          3.0964013647       -2.5206484218        2.9373543958
 H          0.8923890189       -3.4300093476        2.3131660976
 C         -0.5166032256       -2.9979478423        0.0388172638
 H         -0.8248421087       -3.6982068243        0.8262143513
 C         -0.4830054538       -3.7479974169       -1.2782086377
 C          0.1142302748       -5.1212792416       -1.3133784591
 C         -1.3666195958       -4.9433737645       -1.4609944175
 H         -1.8145115086       -5.1097006093       -2.4292517187
 H         -1.9999727660       -5.2286236365       -0.6333354683
 H          0.4850568794       -5.5291143994       -0.3850698487
 H          0.6868442631       -5.4122100152       -2.1806453123
 H         -0.3313643096       -3.1104513203       -2.1386946810
 O         -0.9853402989       -0.9090554602       -2.0246171625
