  62
        -98.93749985
 C         -2.5106649558       -1.3187281829        0.3213627947
 C         -2.5166464259       -0.4424035403       -0.7902988407
 C         -3.2957352011        0.7938784277       -0.6270442079
 C         -3.9562479088        1.0207538194        0.5226818777
 C         -4.8361887608        2.2015011954        0.8378674205
 C         -4.1332653370        3.5704655593        0.9209038042
 C         -4.1546606123        4.3730670507       -0.3858180068
 H         -5.0029682196        4.0433900504       -0.9866733853
 H         -4.3272729166        5.4247255943       -0.1486323942
 C         -2.8769885556        4.3111601880       -1.2288759971
 H         -3.1104266131        4.7048212219       -2.2204390506
 H         -2.1224547481        4.9651966149       -0.7853334184
 C         -2.2444088767        2.9276746131       -1.3840421354
 H         -1.7269336505        2.6536986364       -0.4603234669
 H         -1.4709711233        2.9874543758       -2.1529860860
 C         -3.2367135972        1.8020894385       -1.7369388109
 H         -4.2252105381        2.2108490881       -1.9409998180
 H         -2.8912841951        1.2690233163       -2.6249696991
 H         -4.6569247755        4.1488116325        1.6837357297
 H         -3.1084425579        3.4341875361        1.2664817597
 H         -5.6362467597        2.2502354857        0.0960486309
 H         -5.2899556513        1.9753785286        1.8049252291
 O         -3.9282139269        0.1460332894        1.5660241991
 C         -3.1905731276       -1.0254975997        1.5021271066
 O         -3.2172952662       -1.7084618846        2.5466128843
 H         -0.2437175540       -0.6887981121        1.3780380977
 C          0.3405424288       -1.2458322768        0.6543633594
 C         -0.2595317216       -2.2935315889       -0.0331170111
 C          0.5026474215       -2.9999864677       -0.9539100760
 C          1.8211684718       -2.6489635837       -1.1883566244
 C          2.4091958461       -1.5968390855       -0.5110949873
 C          1.6580610148       -0.8876434000        0.4171119788
 N          2.2473042029        0.1771250885        1.1233034831
 S          3.0283507532        1.3730728144        0.2367671101
 O          2.9669998386        2.5554643591        1.0694255777
 O          2.4846596267        1.4953245926       -1.0953566944
 C          4.7132474025        0.8024004212        0.1629627782
 C          5.3323509387        0.6373445827       -1.0603976077
 C          6.6452212824        0.1929856154       -1.0921211217
 C          7.3116463670       -0.0762275858        0.0934712593
 C          6.6763712994        0.0978464255        1.3141797792
 C          5.3647226774        0.5428549558        1.3528683846
 H          4.8359102270        0.6948765455        2.2789290181
 H          7.1978576198       -0.1121607253        2.2341055045
 H          8.3323343480       -0.4236276431        0.0659787311
 H          7.1407831214        0.0579552490       -2.0400650689
 H          4.7718368647        0.8538301402       -1.9560119425
 H          1.6292652973        0.5967956566        1.8030376353
 H          3.4323676070       -1.3146551603       -0.6981211545
 H          2.3989917116       -3.2023314339       -1.9127609341
 H          0.0610730618       -3.8188680263       -1.4974838592
 C         -1.7072414991       -2.6053005836        0.2630500510
 H         -1.7635549463       -3.0462339078        1.2693746125
 C         -2.3329234229       -3.5665431918       -0.7262147395
 C         -2.2153656530       -5.0462185118       -0.5214292794
 C         -3.5293703773       -4.3610857314       -0.2998530820
 H         -4.3238166002       -4.5200090171       -1.0134155779
 H         -3.8753636386       -4.2269278673        0.7149871083
 H         -2.1108030199       -5.6801774601       -1.3889503528
 H         -1.6720393822       -5.3895707137        0.3458409863
 H         -2.3213333740       -3.1834860515       -1.7401705635
 O         -1.9078896249       -0.6791729854       -1.8657379984
