  62
        -98.94074356
 C          2.5200937075        0.2319754358       -0.4528077010
 C          2.1902499750        0.8710868251        0.7638315220
 C          1.5825823201        2.2122919174        0.6627856755
 C          1.3090767285        2.7105890137       -0.5550531023
 C          0.6067832167        3.9952894347       -0.9037602258
 C         -0.9163167543        3.7832930917       -0.9748525172
 C         -1.6591447335        4.0595862754        0.3300588723
 H         -1.5812659874        5.1227898459        0.5696070037
 H         -2.7137964921        3.8338216105        0.1560959570
 C         -1.1751808546        3.2399954202        1.5276294671
 H         -1.0258757146        2.2035680543        1.2193520412
 H         -1.9677636812        3.2462308565        2.2790196263
 C          0.1117490806        3.7876207415        2.1603853212
 H          0.3138698909        4.7856178881        1.7722589502
 H         -0.0327245242        3.8974983854        3.2378372220
 C          1.3447439599        2.8980844893        1.9819435071
 H          2.2408903148        3.4829673152        2.2217074909
 H          1.3053677240        2.0815629732        2.7104594664
 H         -1.1029565804        2.7508306919       -1.2868954595
 H         -1.3258762773        4.4389893150       -1.7466546280
 H          0.8615385903        4.7825811932       -0.2004163109
 H          0.9685796437        4.2810015922       -1.8938188551
 O          1.6094488091        2.0406772388       -1.7056762775
 C          2.2139145293        0.8006699106       -1.6870641306
 O          2.4350075813        0.3140184788       -2.8173966628
 H          0.5192992615       -1.2711698488       -1.0600793828
 C          0.7500296213       -1.9652519278       -0.2633754280
 C          2.0609070028       -2.0906431181        0.1784687368
 C          2.3371057615       -3.0123146222        1.1791136127
 C          1.3132256238       -3.7530533086        1.7461652246
 C          0.0004785169       -3.5737406158        1.3506020551
 C         -0.2815873207       -2.6678446286        0.3338146915
 N         -1.5966905785       -2.4378125089       -0.1081373674
 S         -1.9688201671       -0.8421860392       -0.5393877667
 O         -1.7054924911       -0.6741757457       -1.9483510534
 O         -1.3172927259        0.0838359623        0.3549394554
 C         -3.7310700388       -0.8264043633       -0.2641737114
 C         -4.5463261893       -1.4957064438       -1.1579127743
 C         -5.9137934472       -1.5108979692       -0.9343162854
 C         -6.4404126154       -0.8597397903        0.1717455351
 C         -5.6100917588       -0.1899178065        1.0575006522
 C         -4.2407544959       -0.1727877131        0.8411843948
 H         -3.5548149262        0.3379711459        1.4980631861
 H         -6.0217607053        0.3185512499        1.9143155036
 H         -7.5051987265       -0.8724494018        0.3427609429
 H         -6.5626359325       -2.0282454757       -1.6223665610
 H         -4.0923790070       -1.9769704902       -2.0085231347
 H         -2.2939019538       -2.8298166790        0.5105863902
 H         -0.7988733739       -4.1247084993        1.8223560029
 H          1.5392975050       -4.4621063146        2.5281553389
 H          3.3491430049       -3.1378358070        1.5276031998
 C          3.0892542166       -1.1774553797       -0.4461495884
 H          3.2058379922       -1.4616707546       -1.5028247494
 C          4.4421707082       -1.2239775297        0.2295858462
 C          5.4361606142       -2.2786558146       -0.1514456156
 C          5.6595339152       -0.8550152339       -0.5618272864
 H          6.4401746761       -0.2914836174       -0.0735260297
 H          5.5135866638       -0.5901966650       -1.5992553958
 H          6.0692271254       -2.6929889402        0.6184744428
 H          5.1466521804       -2.9851459971       -0.9146928090
 H          4.4009412007       -0.9037602078        1.2639191142
 O          2.3979801087        0.3500762457        1.8922109583
