  62
        -98.93288487
 C          2.7693282917        0.0967347200        0.4511022045
 C          2.3001044810       -0.4439039794       -0.7706789502
 C          2.0529637052       -1.8949917222       -0.7779155557
 C          2.3350658651       -2.6160191059        0.3227066224
 C          2.0579724411       -4.0821167188        0.4999761288
 C          0.5627089301       -4.2984433632        0.8105824489
 C         -0.2028539875       -5.0591831434       -0.2721815539
 H          0.0537422279       -6.1185379769       -0.2088535621
 H         -1.2670849734       -4.9637682122       -0.0481167273
 C          0.0463270135       -4.6044207163       -1.7139560877
 H          0.9814932761       -5.0326361658       -2.0774985722
 H         -0.7502274512       -5.0331530474       -2.3255894992
 C          0.0818892795       -3.0879648435       -1.9470181455
 H         -0.4779419688       -2.5622194333       -1.1723780588
 H         -0.4187758884       -2.8742520750       -2.8938290977
 C          1.4975521125       -2.4873751391       -2.0430952886
 H          2.1891181972       -3.2384514945       -2.4345872810
 H          1.4758904680       -1.6565604783       -2.7549021008
 H          0.4617343111       -4.8456928210        1.7489111104
 H          0.1007576616       -3.3208554531        0.9657834957
 H          2.3451454620       -4.6224988558       -0.3990048322
 H          2.6725500876       -4.4307732912        1.3300592358
 O          2.8395707572       -2.0656964885        1.4582524619
 C          3.0428540199       -0.6984226588        1.5622979500
 O          3.4575220445       -0.3216069844        2.6770470190
 H          0.4738526313        0.8346111611        1.1836329207
 C          0.4700932146        1.7619777438        0.6225572369
 C          1.6811745801        2.3155976934        0.2271573891
 C          1.6578089801        3.5085670202       -0.4835544923
 C          0.4531987481        4.1095133757       -0.8074391662
 C         -0.7498703612        3.5405001389       -0.4332668900
 C         -0.7377232641        2.3536985356        0.2877946390
 N         -1.9563447713        1.7606293283        0.6829967541
 S         -3.0923353206        1.5358222971       -0.5532004565
 O         -2.4624920690        0.9568517692       -1.7179908905
 O         -3.7800244827        2.7853136736       -0.7625144060
 C         -4.1931941146        0.3577598481        0.2050495370
 C         -3.9957560276       -0.9895453259       -0.0312866118
 C         -4.8366890483       -1.9073509871        0.5779890724
 C         -5.8527125785       -1.4640075783        1.4114879215
 C         -6.0381049253       -0.1084754918        1.6390640940
 C         -5.2015941116        0.8146821556        1.0317787554
 H         -5.3126358283        1.8772092023        1.1707156186
 H         -6.8310337050        0.2312364706        2.2854766219
 H         -6.5058090191       -2.1807894969        1.8836022211
 H         -4.6978777802       -2.9614425691        0.3993849394
 H         -3.1996566900       -1.2869036456       -0.6960607819
 H         -1.7966135311        0.8812406977        1.1573960809
 H         -1.6944861206        3.9842914770       -0.7034180366
 H          0.4510113702        5.0313682279       -1.3694717151
 H          2.5835383925        3.9624018708       -0.7978431776
 C          2.9609404821        1.5959237579        0.5850189689
 H          3.1787255897        1.7844293341        1.6469091048
 C          4.1484648372        2.0462294916       -0.2418139980
 C          4.9998375744        3.1935377428        0.2100938389
 C          5.5287444474        1.7936347715        0.2835490589
 H          6.2982506070        1.4928193589       -0.4114367305
 H          5.6087653178        1.3245541104        1.2536154695
 H          4.7330196201        3.6816039765        1.1353030394
 H          5.4111435097        3.8556527319       -0.5369946679
 H          3.9848568336        1.9141795208       -1.3054470982
 O          2.0876137539        0.2502470509       -1.7991832088
