  62
        -98.94010737
 C          1.6120525263        1.5909172121       -0.0740960042
 C          2.7400291798        0.9725099039        0.5187883376
 C          3.1940820867       -0.2845507236       -0.0898286991
 C          2.5380448497       -0.7711931068       -1.1581513868
 C          2.8089273236       -2.0888521568       -1.8263377240
 C          2.1390268891       -3.2205531889       -1.0200439296
 C          3.1164591069       -4.1876422785       -0.3478537852
 H          3.4956739103       -4.8848252638       -1.0986541381
 H          2.5466945854       -4.7663896939        0.3825311905
 C          4.3255811419       -3.5572426269        0.3501291766
 H          5.0787929237       -3.2888269147       -0.3922914813
 H          4.7686984364       -4.3338777704        0.9772861621
 C          4.0330215276       -2.3290046660        1.2213857661
 H          4.6404163917       -2.3975572679        2.1264034721
 H          2.9884526947       -2.3253748018        1.5381170148
 C          4.3607957226       -0.9799557234        0.5528417200
 H          5.1634820073       -1.1142051222       -0.1772067244
 H          4.7207339374       -0.2854057747        1.3175704731
 H          1.4897694100       -3.8002413536       -1.6788864911
 H          1.4862389523       -2.7672374047       -0.2688636706
 H          3.8810396780       -2.2536293093       -1.9061530087
 H          2.3843777560       -2.0390827855       -2.8294533227
 O          1.4747689444       -0.1409628514       -1.7143205710
 C          0.9461844388        1.0112670708       -1.1539155500
 O         -0.0916928310        1.4105088218       -1.7163205789
 O          3.3297696219        1.4447453053        1.5295341431
 C          1.0198943894        2.8048588222        0.6229899993
 C         -0.4459570935        2.5441220007        0.8678576108
 C         -1.4714969152        3.4100358773        0.5140815158
 C         -2.7929053507        3.0576565297        0.7348082012
 C         -3.1198226179        1.8291819809        1.2787900657
 C         -2.0984138470        0.9568626869        1.6375251944
 C         -0.7789071829        1.3341807851        1.4658998327
 H          0.0030708766        0.6457072156        1.7533045715
 N         -2.3609098328       -0.3317388026        2.1529811831
 S         -1.9217005507       -1.6172378108        1.1653819125
 O         -2.2859963045       -2.8060726357        1.9071529799
 O         -0.5360972643       -1.5019150485        0.7918841862
 C         -2.9999368943       -1.4554771182       -0.2468103502
 C         -2.7110907304       -0.5218870826       -1.2217032150
 C         -3.6128953294       -0.3468572053       -2.2612883956
 C         -4.7770246179       -1.0976079550       -2.3075787965
 C         -5.0507278534       -2.0320448312       -1.3196409076
 C         -4.1581280360       -2.2097011012       -0.2756634659
 H         -4.3266240818       -2.9235557929        0.5145909838
 H         -5.9553605179       -2.6172914142       -1.3576335909
 H         -5.4737275001       -0.9531034531       -3.1182283344
 H         -3.3915477951        0.3820750192       -3.0243561223
 H         -1.7980962247        0.0517524149       -1.1737906950
 H         -3.3195884698       -0.4629333715        2.4475412829
 H         -4.1512294757        1.5413941067        1.4176448985
 H         -3.5802136299        3.7402692121        0.4537096665
 H         -1.2397741835        4.3515352960        0.0438087210
 H          1.5275187446        2.8259567783        1.6026642982
 C          1.3086285011        4.1419348097       -0.0401607397
 C          2.4893768469        4.3123419886       -0.9475707247
 C          1.1008369652        4.3757133609       -1.5054732396
 H          0.7216765281        5.3369979643       -1.8203311136
 H          0.7441509780        3.5472840795       -2.0959508283
 H          3.0627424837        5.2246821507       -0.8786785665
 H          3.0852836849        3.4361097191       -1.1596318772
 H          1.0910455736        4.9758774096        0.6203015517
