  62
        -98.93742514
 C         -1.4201521637       -1.4675768748       -0.3681852297
 C         -1.5125865784       -0.1095990822       -0.7554924202
 C         -2.5942749875        0.6809739354       -0.1316404486
 C         -3.4114707097        0.0951974892        0.7584333802
 C         -4.5796683932        0.7010824572        1.4877839131
 C         -5.8887560080        0.4970247382        0.7060776361
 C         -6.2084800548        1.5899268739       -0.3125680409
 H         -7.0918751990        1.2680282882       -0.8687264026
 H         -6.4702287952        2.5083189596        0.2169644053
 C         -5.0867916357        1.8994600178       -1.3062436197
 H         -5.5313205043        2.3939619974       -2.1719930425
 H         -4.6419813747        0.9667315792       -1.6576074498
 C         -3.9937320297        2.8061495925       -0.7206704866
 H         -4.3345651626        3.2179363752        0.2287589964
 H         -3.8322086206        3.6573980643       -1.3857428677
 C         -2.6305440067        2.1303898873       -0.5344398305
 H         -2.0771674806        2.1707768386       -1.4786362710
 H         -2.0364350949        2.6968089367        0.1927867762
 H         -6.7154594868        0.4457146561        1.4175176847
 H         -5.8304098966       -0.4711787386        0.2022898944
 H         -4.4014706580        1.7523534682        1.6941621617
 H         -4.6551820327        0.1683464334        2.4383277680
 O         -3.2987554834       -1.2218535206        1.0926419686
 C         -2.3040367857       -2.0186859496        0.5620258500
 O         -2.3118458135       -3.1952149352        0.9801017268
 O         -0.7453938682        0.4420864044       -1.5854530853
 C         -0.3282069994       -2.4077500174       -0.8511207348
 C          0.8572456501       -2.3677395596        0.0832516747
 C          1.5561607345       -3.5265572096        0.4023060969
 C          2.6413827277       -3.4769141396        1.2593595443
 C          3.0431479471       -2.2786691228        1.8206849126
 C          2.3385304228       -1.1154602339        1.5242420353
 C          1.2637524049       -1.1680762280        0.6487174805
 H          0.7189471520       -0.2643058216        0.4354917072
 N          2.6880134530        0.0931663444        2.1294537772
 S          2.2656385760        1.6087682063        1.5797893182
 O          2.9669760227        2.4967033052        2.4839757119
 O          0.8328560055        1.7546848195        1.5370680441
 C          2.9989352512        1.7501324183       -0.0394558414
 C          2.2371870210        1.6592913034       -1.1854190945
 C          2.8718190408        1.7696685584       -2.4145623083
 C          4.2421660617        1.9605785643       -2.4785324396
 C          4.9933582504        2.0489438229       -1.3154607664
 C          4.3676116753        1.9444937234       -0.0853189487
 H          4.9099649755        2.0297928618        0.8422268377
 H          6.0595581118        2.2006935220       -1.3651965309
 H          4.7265126007        2.0431339724       -3.4387455047
 H          2.2808165034        1.7012553340       -3.3136826377
 H          1.1722072229        1.4964896153       -1.1239906996
 H          3.5364766802        0.0914210566        2.6730168959
 H          3.8809448350       -2.2426505233        2.4997642545
 H          3.1768783556       -4.3827778741        1.4996329121
 H          1.2307441137       -4.4719909156       -0.0060374211
 H         -0.7619456217       -3.4187976795       -0.7826376613
 C          0.0666135875       -2.1795463653       -2.3040384337
 C          1.3603887424       -1.5478967567       -2.7106866584
 C          1.1410755341       -3.0110291072       -2.9404866705
 H          0.9883344286       -3.3596084356       -3.9506613666
 H          1.6809598903       -3.7014126761       -2.3113222979
 H          1.3446855936       -0.8785626994       -3.5562796219
 H          2.0440996388       -1.2461389132       -1.9320585522
 H         -0.7954442138       -1.9482649450       -2.9208498641
