  62
        -98.93633069
 C          1.1031441205        1.5029606991        0.5503946016
 C          1.9580134424        1.1176739383       -0.5111881741
 C          3.0976514170        0.2643405850       -0.1411763498
 C          3.2599507304       -0.1244288919        1.1353099069
 C          4.3851723101       -0.9597698899        1.6855405656
 C          4.4435173106       -2.4183016602        1.1910137314
 C          5.3668959617       -2.6403060737       -0.0133835022
 H          6.1208680408       -1.8522112397       -0.0276246985
 H          5.9005745310       -3.5829460365        0.1239925297
 C          4.6779631097       -2.7134763049       -1.3795005940
 H          5.4491293265       -2.6220759321       -2.1476218582
 H          4.2147720786       -3.6964519316       -1.4928856631
 C          3.5937860725       -1.6670330673       -1.6405633715
 H          2.6828602149       -1.9369745124       -1.0985411420
 H          3.3365733924       -1.6996083967       -2.7013970646
 C          3.9808193750       -0.2268524686       -1.2506963269
 H          5.0293325141       -0.1742664541       -0.9613261800
 H          3.8205158078        0.4419734773       -2.0987116872
 H          4.8165118472       -3.0200011932        2.0216041222
 H          3.4341401974       -2.7668177824        0.9694649430
 H          5.3331711674       -0.4635058399        1.4657714170
 H          4.2482166413       -0.9567723028        2.7688818525
 O          2.3949923465        0.2387402558        2.1216264165
 C          1.2826623902        1.0168983890        1.8471228542
 O          0.5363006156        1.2054664523        2.8297605329
 H         -0.7026579481       -0.2279454119       -0.0313638344
 C         -1.1380819713        0.3603929075       -0.8247162273
 C         -0.9223626643        1.7319997357       -0.8502341671
 C         -1.4517711863        2.4647418862       -1.9036822339
 C         -2.1692643079        1.8286812527       -2.9029020745
 C         -2.3931675095        0.4645087908       -2.8649504769
 C         -1.8646747053       -0.2776146972       -1.8144680983
 N         -2.0579974635       -1.6647055709       -1.7276625476
 S         -2.2033850465       -2.3797179097       -0.2253193057
 O         -0.9129151245       -2.4959309631        0.4086725860
 O         -2.8856014111       -3.6288069571       -0.4905535604
 C         -3.2763788549       -1.2930088661        0.6982238637
 C         -4.5822284215       -1.1731530693        0.2620687532
 C         -5.4358361564       -0.3059821903        0.9229560213
 C         -4.9704967671        0.4290297035        2.0031293571
 C         -3.6602503142        0.2928686296        2.4334659162
 C         -2.8021535698       -0.5763785584        1.7774660676
 H         -1.7761069547       -0.6943459992        2.0913065437
 H         -3.2899413868        0.8618767360        3.2716033073
 H         -5.6314601873        1.1104166721        2.5150168949
 H         -6.4569608566       -0.2022282346        0.5934478241
 H         -4.9096951077       -1.7685573539       -0.5745805966
 H         -2.6960315426       -2.0558233877       -2.4043391863
 H         -2.9551791120       -0.0262603948       -3.6445110358
 H         -2.5658448929        2.4071927928       -3.7233458848
 H         -1.2850163534        3.5278395841       -1.9572465478
 C         -0.1495660394        2.3256911401        0.3031916530
 H         -0.7613710375        2.1779029053        1.2096635731
 C          0.0813151444        3.8245636075        0.1818655607
 C          1.3171716337        4.4667575149        0.7364252536
 C          1.1036961008        4.4077932149       -0.7448757223
 H          0.8611725594        5.3246983440       -1.2621712666
 H          1.6973232936        3.7194428318       -1.3243998764
 H          2.0655337372        3.8194130433        1.1710819574
 H          1.2197405566        5.4188023530        1.2366313852
 H         -0.8400464993        4.3857680930        0.3028800746
 O          1.7934081835        1.4625796769       -1.7094736437
