  62
        -98.94173380
 C         -1.7092252513       -0.4704048186       -0.2962218633
 C         -2.8235161180       -1.2913283820        0.0179286038
 C         -4.1433002780       -0.7554648582       -0.3309871924
 C         -4.2381805274        0.4558732361       -0.9077114254
 C         -5.5091220974        1.1294805882       -1.3492300764
 C         -6.2387902110        1.8810367598       -0.2274430099
 C         -6.9341310531        0.9929685236        0.8052716335
 H         -7.5810943698        1.6405691885        1.4004078123
 H         -7.5753044289        0.2753369200        0.2924254235
 C         -5.9771956408        0.2501292670        1.7481297107
 H         -4.9906113904        0.7176921661        1.7070223787
 H         -6.3332337969        0.3448861136        2.7764530406
 C         -5.8304283213       -1.2431629914        1.4554850910
 H         -5.1041325152       -1.6603929489        2.1574941527
 H         -6.7861965827       -1.7448918197        1.6219399166
 C         -5.3516840480       -1.5641131337        0.0335730404
 H         -6.1551857032       -1.3912105662       -0.6821332008
 H         -5.0699050276       -2.6192663642       -0.0031293079
 H         -5.5235800642        2.5356354294        0.2762116004
 H         -6.9942938882        2.5145105208       -0.6980357069
 H         -6.1799967076        0.3924203739       -1.7916598212
 H         -5.2271598639        1.8502883268       -2.1198751763
 O         -3.1493223594        1.2224665492       -1.1761039846
 C         -1.8623876585        0.7978148380       -0.8587705629
 O         -0.9819184228        1.6350605464       -1.1290933253
 O         -2.7181620555       -2.4199977615        0.5663971580
 C         -0.3321436210       -1.0024696825        0.0581150516
 C          0.4808146913        0.0511750681        0.7644410507
 C          0.0865882785        0.4640215523        2.0349744880
 C          0.7958305023        1.4347817271        2.7143887474
 C          1.9277578862        1.9986633657        2.1516124286
 C          2.3281713935        1.5951193566        0.8840216397
 C          1.6056542084        0.6280142961        0.1978094327
 H          1.9085280472        0.3700991531       -0.8023943187
 N          3.4696900988        2.1452256916        0.2874576295
 S          4.4296720684        1.2233524644       -0.7153228589
 O          5.7324758565        1.8507422524       -0.6372701439
 O          3.8609141920        1.1310482008       -2.0361507802
 C          4.4910042204       -0.3951030221        0.0360039027
 C          4.8791166599       -0.4966463984        1.3574221495
 C          4.9213439894       -1.7482186844        1.9496387811
 C          4.5810191878       -2.8730063279        1.2138231450
 C          4.2032784156       -2.7562652724       -0.1146107271
 C          4.1558853558       -1.5058601991       -0.7105822691
 H          3.8607883533       -1.3685175514       -1.7387948998
 H          3.9415444997       -3.6322117876       -0.6869280790
 H          4.6112214224       -3.8465646563        1.6769948264
 H          5.2174265018       -1.8430596333        2.9818330309
 H          5.1460394061        0.3945669956        1.9013296159
 H          4.0046678776        2.7744738409        0.8662622022
 H          2.4861792356        2.7558385265        2.6805706518
 H          0.4719669307        1.7513220175        3.6943980565
 H         -0.7951249806        0.0203842137        2.4772140470
 H         -0.5337402808       -1.8131894487        0.7782819635
 C          0.4124029255       -1.6373170061       -1.1064047889
 C         -0.3216764097       -2.3322569666       -2.2125245936
 C          0.4045140684       -1.0505058744       -2.4846681878
 H          1.3174118233       -1.0810250432       -3.0624896936
 H         -0.1717391675       -0.1524926781       -2.6450254302
 H          0.0880822774       -3.2508801905       -2.6043044673
 H         -1.4015084315       -2.3098427573       -2.1886934340
 H          1.3414004964       -2.0966122273       -0.7815580964
