  62
        -98.93894642
 C         -1.8982875897       -0.7202156505        0.7003640391
 C         -2.1772749199       -0.2289714903       -0.5985374308
 C         -2.7778880600        1.1130225596       -0.6592931106
 C         -2.9407812101        1.8186278394        0.4734941695
 C         -3.5929555802        3.1675414893        0.5602671997
 C         -5.1015747702        3.0376307291        0.8152027198
 C         -5.8045474101        2.0551499591       -0.1217907703
 H         -5.4380993100        1.0459783291        0.0802542595
 H         -6.8666728301        2.0676999789        0.1320885497
 C         -5.6312736002        2.3668984193       -1.6148606003
 H         -6.6004223303        2.2664577593       -2.1078177203
 H         -5.3080636304        3.4006231794       -1.7417059402
 C         -4.6605146002        1.4395226796       -2.3483755805
 H         -4.7763751802        1.6064732497       -3.4224393204
 H         -4.9274772700        0.3987449595       -2.1483457006
 C         -3.1751940702        1.6288298397       -2.0139309205
 H         -2.5928019901        1.0486547199       -2.7358167206
 H         -2.9035828003        2.6809670898       -2.1204525204
 H         -5.2501480301        2.6972631089        1.8427220497
 H         -5.5542022304        4.0258085790        0.7157311799
 H         -3.1376209903        3.7162943793        1.3864872398
 H         -3.4146491204        3.7113034895       -0.3653912802
 O         -2.5684519800        1.3524040193        1.6941155794
 C         -2.0488129198        0.0766902193        1.8370925492
 O         -1.7594724597       -0.2276489108        3.0131153692
 H          0.7926205602       -0.5305725301        0.5879165990
 C          0.8560645803       -1.3968348700       -0.0573016711
 C         -0.1687353996       -2.3357928902       -0.0435483912
 C         -0.0732949595       -3.4364506000       -0.8841533813
 C          1.0244609905       -3.5876098998       -1.7137526614
 C          2.0471881304       -2.6584774096       -1.7155353313
 C          1.9547969903       -1.5450888898       -0.8859305212
 N          2.9569839002       -0.5606589696       -0.8968627411
 S          3.2392734201        0.3401886402        0.4978024090
 O          3.2850896003       -0.5280929299        1.6535742289
 O          2.2946731100        1.4294863701        0.5491920892
 C          4.8707888800        0.9688288005        0.1454961790
 C          5.9720301601        0.2994325906        0.6455237289
 C          7.2392760901        0.7720106508        0.3423934489
 C          7.3834103399        1.8983708409       -0.4536972410
 C          6.2689703498        2.5606177808       -0.9470773908
 C          4.9989128498        2.0939349106       -0.6469131808
 H          4.1037463398        2.5797817505       -0.9990802807
 H          6.3844711096        3.4379326609       -1.5628421807
 H          8.3703212198        2.2644601210       -0.6885838210
 H          8.1069499201        0.2612099508        0.7276463188
 H          5.8098323303       -0.5659769696        1.2677328688
 H          3.8134697602       -0.8673103695       -1.3368850912
 H          2.9030990204       -2.7808600794       -2.3615599014
 H          1.0853694306       -4.4457583097       -2.3658606515
 H         -0.8657107094       -4.1662134401       -0.9054616314
 C         -1.3102164395       -2.1032470004        0.9166170289
 H         -0.8773130295       -2.0696440405        1.9316300989
 C         -2.3406902494       -3.2233002206        0.9212153888
 C         -3.7720707994       -2.9536113108        1.2760221389
 C         -3.4066036494       -3.3335632806       -0.1257568912
 H         -3.6808316993       -4.3182387306       -0.4751884513
 H         -3.4310570796       -2.5746036705       -0.8910978011
 H         -4.2919979693       -3.6743811110        1.8891916188
 H         -4.0524126795       -1.9290409909        1.4752964691
 H         -1.9243458593       -4.1538933806        1.2947950087
 O         -1.9520728398       -0.8692326902       -1.6578735809
