  62
        -98.94128061
 C         -1.2347006696       -0.7740646698        0.4383230697
 C         -2.1135630194       -0.5690748201       -0.6501096905
 C         -3.1023937896        0.5121137598       -0.4933063309
 C         -3.0860158499        1.2674633301        0.6180607289
 C         -3.9651180701        2.4425622600        0.9677454985
 C         -5.4627019000        2.3273263098        0.6518849183
 C         -6.0458787999        0.9122111997        0.7783066485
 H         -5.3269184199        0.2545035699        1.2695989987
 H         -6.9364049200        0.9509851898        1.4083011883
 C         -6.4495334595        0.3105136394       -0.5698555915
 H         -6.9569126495        1.0784227392       -1.1577856418
 H         -7.1672289795       -0.4943829207       -0.3943093915
 C         -5.3044927393       -0.2758804906       -1.3947616412
 H         -4.9364927093       -1.1897687605       -0.9208273109
 H         -5.7040196591       -0.5595900409       -2.3712944612
 C         -4.0984628694        0.6536303495       -1.6082388011
 H         -3.5798286892        0.3299515093       -2.5150049410
 H         -4.4128274595        1.6862065694       -1.7400511314
 H         -5.6523354199        2.7015387195       -0.3531585118
 H         -5.9810489702        2.9982546699        1.3390888680
 H         -3.8277986103        2.5897080803        2.0419332985
 H         -3.5587654001        3.3282449900        0.4697530184
 O         -2.1829100700        1.0686273504        1.6205781492
 C         -1.2386417599        0.0597131605        1.5546328395
 O         -0.4698944301        0.0063086608        2.5374731297
 H          0.8509236404        0.4942061904       -0.2548405401
 C          1.2448437806       -0.2827089597       -0.8922012099
 C          0.7895986007       -1.5856243498       -0.7454247497
 C          1.2872244910       -2.5604743899       -1.6005625094
 C          2.2071234412       -2.2259000400       -2.5797048593
 C          2.6747457410       -0.9302327599       -2.7066749195
 C          2.1880639507        0.0502655402       -1.8500092198
 N          2.6439273506        1.3769583102       -1.9152836300
 S          2.8772062802        2.2014008806       -0.4757586901
 O          1.6169580801        2.6658203705        0.0482571395
 O          3.8363148402        3.2344433706       -0.8077467202
 C          3.6341970502        1.0019799009        0.6077444703
 C          4.9195720603        0.6012307110        0.2945211706
 C          5.5301744202       -0.3710714588        1.0681649809
 C          4.8455917801       -0.9299165887        2.1370997109
 C          3.5602896200       -0.5122293888        2.4427143506
 C          2.9435460000        0.4632587810        1.6736005403
 H          1.9397977199        0.7939231009        1.8935064600
 H          3.0204208299       -0.9402900186        3.2726031606
 H          5.3156090001       -1.6930936785        2.7370769212
 H          6.5322202903       -0.6927680587        0.8347783912
 H          5.4216388904        1.0673043808       -0.5377246794
 H          3.3993905807        1.5357125802       -2.5659212999
 H          3.4011984811       -0.6757237100       -3.4628217594
 H          2.5761103914       -2.9897065801       -3.2470004091
 H          0.9495151811       -3.5793194499       -1.5062321393
 C         -0.1853076195       -1.8676035096        0.3727843701
 H          0.3747071604       -1.8039788094        1.3183157102
 C         -0.8357289393       -3.2320944997        0.2833314303
 C         -0.1543735792       -4.4307124695        0.8701330307
 C         -1.3694254594       -3.8593672995        1.5350684003
 H         -2.2969691994       -4.4094267297        1.4820223003
 H         -1.2407235397       -3.3112201093        2.4574751203
 H          0.8014878407       -4.2784511593        1.3480184408
 H         -0.2499534690       -5.3784153597        0.3620979009
 H         -1.4113894791       -3.3598678900       -0.6258221398
 O         -2.0749474491       -1.2490849603       -1.7084470803
