  62
        -98.94367036
 C         -1.7882812739       -0.3882075131       -0.3089016238
 C         -2.9684340651       -0.7392105585       -1.0058111665
 C         -4.2174196032       -0.6518502679       -0.2376267779
 C         -4.1691016243       -0.2802389808        1.0549890864
 C         -5.3681118946       -0.1046450158        1.9404459006
 C         -5.8862148145        1.3396022971        1.8938916299
 C         -6.0661933219        1.8853125119        0.4773174466
 H         -6.4640794950        2.8984446289        0.5670657890
 H         -5.0873314340        1.9655301722       -0.0007632924
 C         -6.9960232350        1.0481346668       -0.4120456475
 H         -7.6114674837        0.3941626424        0.2068003484
 H         -7.6719932407        1.7212828493       -0.9435898043
 C         -6.2766988557        0.2119969336       -1.4722193929
 H         -5.5885514932        0.8475875431       -2.0352451815
 H         -7.0253010438       -0.1625181392       -2.1756016897
 C         -5.4946552812       -0.9996691084       -0.9493153197
 H         -5.2010185901       -1.6031329784       -1.8133919693
 H         -6.1400310507       -1.6065640400       -0.3108840618
 H         -5.1739096479        1.9797019161        2.4193596971
 H         -6.8383006555        1.3819669999        2.4260083300
 H         -6.1502102216       -0.7926269051        1.6253008296
 H         -5.0769909526       -0.3441221376        2.9645436299
 O         -3.0130929261        0.0265069352        1.6967408672
 C         -1.7950187934       -0.0086896209        1.0335111944
 O         -0.8175391152        0.3101119912        1.7351278076
 O         -2.9758116610       -1.1134716659       -2.2100541095
 C         -0.4593412175       -0.4391036607       -1.0397167335
 C          0.4876267200       -1.3826622736       -0.3410725124
 C          0.0320605279       -2.6467696551        0.0263315323
 C          0.8641273221       -3.5358900886        0.6768252096
 C          2.1733661793       -3.1901861869        0.9635960076
 C          2.6425423460       -1.9373367849        0.5908237457
 C          1.8007963375       -1.0434296539       -0.0582775243
 H          2.1843407057       -0.0782374586       -0.3418112376
 N          3.9555205230       -1.5486275017        0.8874873639
 S          4.8238932928       -0.5869880835       -0.1655916435
 O          4.5275390383       -0.8996007400       -1.5442371594
 O          6.2030234185       -0.7637958989        0.2380105912
 C          4.3239676372        1.0808422560        0.2067759102
 C          4.2584133033        1.9988114543       -0.8228826393
 C          3.9051285608        3.3076277835       -0.5344332345
 C          3.6260422287        3.6740500347        0.7729935963
 C          3.7003648352        2.7410758002        1.7960416678
 C          4.0562449109        1.4316945882        1.5148853713
 H          4.1165567805        0.6823869010        2.2863327629
 H          3.4785274581        3.0284366526        2.8112709870
 H          3.3466586373        4.6918730696        0.9955524150
 H          3.8463774903        4.0348105856       -1.3288872435
 H          4.4729294043        1.6670951735       -1.8265620493
 H          4.5295760345       -2.2549572396        1.3233161598
 H          2.8242176045       -3.8829296162        1.4750603701
 H          0.4935215195       -4.5094039031        0.9611220728
 H         -0.9898810915       -2.9197320451       -0.1998263395
 H         -0.6856643371       -0.8575198241       -2.0322330829
 C          0.0945258302        0.9592689897       -1.2164957487
 C          0.9850170876        1.2805666062       -2.3781084880
 C         -0.4187905494        1.8032069544       -2.3431323412
 H         -0.5726358036        2.8575280200       -2.1697006247
 H         -1.1490074608        1.3574524606       -3.0028560681
 H          1.7948707497        1.9774765783       -2.2249285967
 H          1.2181189428        0.4819860513       -3.0663918497
 H          0.2907046944        1.4515518404       -0.2701217445
