  62
        -98.93429814
 C          2.0157663916        0.3165438000       -0.2039302999
 C          3.0890205448        1.2397129365       -0.2793852698
 C          4.3351914531        0.8461418378        0.3885095806
 C          4.3840762334       -0.3288115698        1.0421067859
 C          5.6016452154       -0.8790424860        1.7255230454
 C          6.4257664116       -1.7558245640        0.7723798513
 C          6.7070115987       -1.1023387718       -0.5807238151
 H          7.3201097274       -1.7988804735       -1.1568063045
 H          5.7649493982       -0.9819714197       -1.1206378378
 C          7.4187012108        0.2551232147       -0.4948969464
 H          7.8797047740        0.3702704287        0.4867147212
 H          8.2217714783        0.2765816082       -1.2346069584
 C          6.5205238239        1.4608420506       -0.7774642048
 H          5.9846685817        1.3058621867       -1.7173200633
 H          7.1599834102        2.3381222453       -0.9065047998
 C          5.4951348820        1.7987241990        0.3120579668
 H          5.9969531695        1.8726111408        1.2789322636
 H          5.0648789067        2.7753336287        0.0718742478
 H          7.3692439291       -2.0050346981        1.2614952633
 H          5.8783093507       -2.6847388561        0.5963970715
 H          6.2088399810       -0.0542976799        2.0936107008
 H          5.2757195558       -1.4853281437        2.5723115952
 O          3.3286999789       -1.1769766468        1.1159663082
 C          2.1208247147       -0.8902825977        0.4891833869
 O          1.2579505126       -1.7727981468        0.6393115710
 H         -1.2709359862       -1.2974476738       -0.4473121045
 C         -1.3191625909       -0.4364013058        0.1927518063
 C         -0.4207555158        0.6128900176        0.0789570591
 C         -0.5286898413        1.6664244402        0.9896961827
 C         -1.4933333084        1.6725823270        1.9766126380
 C         -2.4055071311        0.6350697419        2.0632317198
 C         -2.3124409041       -0.4170451849        1.1640432158
 N         -3.2462207416       -1.4783102437        1.1889165292
 S         -4.2913916346       -1.5373493960       -0.1179154885
 O         -5.2863508604       -2.5297439511        0.2214976366
 O         -3.5453669643       -1.7556478238       -1.3284406689
 C         -5.0361764095        0.0849144699       -0.1452667082
 C         -6.2300426098        0.2856134428        0.5195797302
 C         -6.7652319729        1.5628197845        0.5674986400
 C         -6.0934948812        2.6150024144       -0.0363070642
 C         -4.8937930047        2.3982635613       -0.6966670781
 C         -4.3565749021        1.1219586536       -0.7534065235
 H         -3.4269878869        0.9173605577       -1.2598541967
 H         -4.3699314839        3.2160543662       -1.1648265763
 H         -6.5068831892        3.6102963461        0.0064498121
 H         -7.6994633574        1.7339899896        1.0776700246
 H         -6.7181841663       -0.5622805100        0.9726785863
 H         -3.7831669574       -1.5225533066        2.0441584337
 H         -3.1733179295        0.6355169627        2.8224762729
 H         -1.5455173208        2.4945471117        2.6739809344
 H          0.1770869822        2.4829568205        0.9203672096
 C          0.7165047897        0.6997351910       -0.9044448462
 H          0.8480686654        1.7706862137       -1.1292439644
 C          0.6381160713        0.0197000462       -2.2650265916
 C          0.4380730812       -1.4461957237       -2.5004152750
 C         -0.6043843955       -0.4651377810       -2.9488201228
 H         -0.6972737174       -0.2786558777       -4.0090535967
 H         -1.5466808749       -0.4512602294       -2.4250695084
 H          0.2382258798       -2.0788353250       -1.6502597745
 H          1.0523659325       -1.9247767142       -3.2506154897
 H          1.3715993081        0.4797151752       -2.9247486799
 O          3.0039640486        2.3467610002       -0.8766099828
