  62
        -98.94289771
 C          1.9690108794        0.5837762934        0.8407586591
 C          2.8839303120        1.1755708063       -0.0645896630
 C          4.2602196451        0.6568094172       -0.0175743132
 C          4.5767460349       -0.3157207146        0.8550898609
 C          5.9213063274       -0.9737081681        0.9605203664
 C          6.0045372895       -2.2148276886        0.0608396432
 C          5.5338332968       -1.9717500119       -1.3732604950
 H          4.4628400100       -1.7556520275       -1.3648112816
 H          5.6676176173       -2.9069093267       -1.9214986126
 C          6.2737879394       -0.8411614667       -2.1018291949
 H          6.5263075938       -1.1805973016       -3.1086045823
 H          7.2113501347       -0.6220991672       -1.5895699696
 C          5.4665512707        0.4491060970       -2.2556789768
 H          4.4871805127        0.2190503820       -2.6825077325
 H          5.9903271982        1.0946739051       -2.9656355927
 C          5.2539628977        1.2594379802       -0.9708631601
 H          4.8436135584        2.2323039876       -1.2561851949
 H          6.2128536467        1.4227524214       -0.4752226784
 H          5.3823020618       -3.0002598875        0.4964147359
 H          7.0380170288       -2.5661089826        0.0523505917
 H          6.6932073827       -0.2585065850        0.6830538337
 H          6.0752028593       -1.2768110648        1.9975799867
 O          3.6774981515       -0.8491421359        1.7211337269
 C          2.3619527964       -0.4209349217        1.7306288332
 O          1.6461924241       -0.9978446821        2.5751852027
 H         -1.4353376947       -0.8732514418        1.1980019610
 C         -1.2665404265       -0.6108938260        0.1640373790
 C         -0.3010020844        0.3288839909       -0.1677434837
 C         -0.0946888472        0.6309530375       -1.5106269527
 C         -0.8358380415       -0.0004035292       -2.4919482436
 C         -1.8089076712       -0.9259628352       -2.1563361191
 C         -2.0247619226       -1.2332308770       -0.8190238974
 N         -3.0101157212       -2.1672012883       -0.4431102767
 S         -4.1974315382       -1.6760179488        0.6305475500
 O         -3.6199927682       -1.4180299763        1.9240352173
 O         -5.2060852989       -2.7098836432        0.5682532369
 C         -4.8275048246       -0.1669551609       -0.0820155141
 C         -4.1798750625        1.0233300839        0.1823542859
 C         -4.6213498952        2.1784194892       -0.4432450867
 C         -5.6976437771        2.1245035401       -1.3154538371
 C         -6.3408035188        0.9218603248       -1.5669014391
 C         -5.8992126774       -0.2377637365       -0.9506743495
 H         -6.3709633438       -1.1933195771       -1.1137883318
 H         -7.1801151908        0.8838982587       -2.2424952527
 H         -6.0372751906        3.0261761879       -1.8001822168
 H         -4.1188942912        3.1119985217       -0.2476005216
 H         -3.3481439926        1.0286846087        0.8674074484
 H         -3.4380342102       -2.6418145919       -1.2260012239
 H         -2.3913502914       -1.4144162860       -2.9230640997
 H         -0.6601030577        0.2364551632       -3.5302596692
 H          0.6663065104        1.3483159808       -1.7757264831
 C          0.5045309442        0.9885985230        0.9262625262
 H          0.1469272033        0.5904937365        1.8859783199
 C          0.3017455903        2.4913360743        0.9300591431
 C         -0.9150602319        3.0589152542        1.5937793188
 C          0.4345785414        3.2395361436        2.2204931521
 H          0.8882145653        4.2189994487        2.2040942053
 H          0.6654605176        2.6671725531        3.1078407735
 H         -1.5981166583        2.3686292623        2.0671419252
 H         -1.3918879545        3.9183929132        1.1486015194
 H          0.6653590249        2.9798533936        0.0363470148
 O          2.5931405094        2.0899051138       -0.8793089517
