  62
        -98.93749363
 C         -2.1376330877       -1.0014561144       -0.1408035086
 C         -3.0211571288       -0.6289593307        0.9059118051
 C         -3.8427778570        0.5658104749        0.6786820645
 C         -3.7016298098        1.2578379802       -0.4656806476
 C         -4.4072896760        2.5335258054       -0.8431532042
 C         -5.9348141733        2.4412950938       -1.0239167829
 C         -6.7422682745        2.7982880074        0.2302117641
 H         -6.1345563947        3.4427276342        0.8666017566
 H         -7.6134003701        3.3847626541       -0.0687038800
 C         -7.2611096867        1.6128044406        1.0495601188
 H         -7.5875239383        1.9945068264        2.0193020872
 H         -8.1364388994        1.1905813737        0.5508171722
 C         -6.2684429085        0.4722979467        1.2751826397
 H         -6.6885807254       -0.2018686530        2.0240807650
 H         -6.1649245005       -0.1115142821        0.3575426913
 C         -4.8631125973        0.9209598264        1.7208654269
 H         -4.5741427145        0.3926731878        2.6315298692
 H         -4.8458917957        1.9907143514        1.9241691970
 H         -6.2015650815        3.1462566412       -1.8128988785
 H         -6.1992084257        1.4453458058       -1.3782204005
 H         -4.1757469763        3.2947923102       -0.0944701798
 H         -3.9543244354        2.8470240953       -1.7861283272
 O         -2.8289513781        0.8801229957       -1.4379763503
 C         -2.0358856275       -0.2506648506       -1.3116568445
 O         -1.3096529989       -0.4565104058       -2.3056018945
 O         -3.1160461176       -1.2692564461        1.9863587908
 C         -1.2771034441       -2.2339852730        0.0923710445
 C          0.1201456407       -1.7992177246        0.4638785246
 C          0.5323172171       -1.8136330352        1.7919866942
 C          1.7906130013       -1.3595228899        2.1449841850
 C          2.6596419058       -0.8743329575        1.1838832076
 C          2.2512138213       -0.8420422954       -0.1426946884
 C          0.9972706495       -1.3168972369       -0.4971796624
 H          0.6803724505       -1.2647245990       -1.5277648292
 N          3.1190063338       -0.3230852344       -1.1247055741
 S          3.6638991447        1.2494354942       -0.8770383463
 O          2.7281579577        2.0182893884       -0.0876544637
 O          3.9720533440        1.7629097080       -2.1941974193
 C          5.1849377044        1.0269852238        0.0232905535
 C          5.3526774087        1.6286370645        1.2550699269
 C          6.5474084048        1.4438193177        1.9337376710
 C          7.5476095159        0.6658245587        1.3710970467
 C          7.3643999215        0.0707216750        0.1316217575
 C          6.1730253249        0.2521199451       -0.5523167926
 H          5.9904613600       -0.1882620256       -1.5182064702
 H          8.1446919141       -0.5331963431       -0.3027377082
 H          8.4755515308        0.5227963291        1.9018498599
 H          6.6915355069        1.9059736122        2.8971113999
 H          4.5440799392        2.2197219678        1.6549237522
 H          2.7406424708       -0.4058308985       -2.0586058605
 H          3.6381283033       -0.5106362456        1.4521843341
 H          2.0968377543       -1.3791340448        3.1797649446
 H         -0.1530131851       -2.1655434088        2.5495790064
 H         -1.7181629155       -2.7272195795        0.9687600510
 C         -1.2951941544       -3.2086292020       -1.0672244359
 C         -0.8549833268       -4.6215934816       -0.8321733706
 C         -2.3022699268       -4.3178246792       -1.0740483161
 H         -2.7418264570       -4.6069625304       -2.0169271113
 H         -2.9838216344       -4.3794247920       -0.2382466354
 H         -0.2977084343       -5.1230104315       -1.6083236724
 H         -0.5545445223       -4.8891662117        0.1694609842
 H         -1.0548697107       -2.7563394097       -2.0204696873
