  62
        -98.93982157
 C          2.6790263017        0.7754702154        0.3068404368
 C          2.7196559679       -0.3234023777        1.1983303772
 C          3.3260308176       -1.5519665616        0.6753834339
 C          3.8018097663       -1.5768621839       -0.5831724250
 C          4.4714618291       -2.7463889364       -1.2524513358
 C          3.4940337768       -3.7556692799       -1.8703836607
 C          2.7306026162       -4.6201675824       -0.8662614944
 H          2.2502812545       -5.4201198182       -1.4330267827
 H          3.4374483363       -5.0868071930       -0.1794898481
 C          1.6563952787       -3.8662827129       -0.0696461946
 H          0.7353221908       -4.4532606940       -0.0549809012
 H          1.4266718483       -2.9229699624       -0.5712560912
 C          2.0331135149       -3.5772623278        1.3836982242
 H          2.1387120327       -4.5177917362        1.9287273347
 H          1.2188169236       -3.0115922937        1.8439848832
 C          3.3257019100       -2.7676661095        1.5526553602
 H          3.3859254666       -2.4295786022        2.5900606865
 H          4.1920572439       -3.3925272410        1.3376011510
 H          4.0747956488       -4.4160820460       -2.5184115557
 H          2.7841063172       -3.2134062847       -2.4993271227
 H          5.1197427715       -3.2553171398       -0.5386073308
 H          5.0904035790       -2.3333868044       -2.0518010243
 O          3.7400073724       -0.5004841889       -1.4107381534
 C          3.1540143572        0.6896712590       -1.0022479307
 O          3.1283782228        1.5723797643       -1.8797726291
 O          2.2667023992       -0.2802680712        2.3746711834
 C          2.0418771082        2.0711847378        0.7779745520
 C          0.7643752361        2.3051908476        0.0082192448
 C          0.5156514329        3.4400743446       -0.7503359702
 C         -0.6783265478        3.5710186982       -1.4398970770
 C         -1.6438860216        2.5836241072       -1.3869795547
 C         -1.4101847661        1.4476356543       -0.6211216121
 C         -0.2165264425        1.3217212926        0.0726810543
 H         -0.0320867494        0.4394360329        0.6734625835
 N         -2.3778683689        0.4253935000       -0.5683830459
 S         -3.9855609040        0.9053322736       -0.3580884226
 O         -4.5121447289        1.3052668898       -1.6389401112
 O         -4.0763044798        1.8910037613        0.6959232364
 C         -4.7395034817       -0.6259216911        0.1515755625
 C         -5.0522925549       -1.5643975711       -0.8136068068
 C         -5.6188486064       -2.7659719506       -0.4193961456
 C         -5.8619066605       -3.0075372028        0.9247821820
 C         -5.5437612844       -2.0553033025        1.8813679168
 C         -4.9747762502       -0.8520693435        1.4942848668
 H         -4.7182321662       -0.0802062589        2.2022701972
 H         -5.7363401734       -2.2445204131        2.9251562409
 H         -6.3048487499       -3.9427660030        1.2288395222
 H         -5.8697870692       -3.5082241491       -1.1598618708
 H         -4.8548581252       -1.3289956158       -1.8463517648
 H         -2.1291360220       -0.2915440978        0.1000101061
 H         -2.5766895871        2.6787242938       -1.9190454515
 H         -0.8588315940        4.4566927047       -2.0305350673
 H          1.2568081275        4.2196817743       -0.8095653875
 H          1.7720173711        1.8948383172        1.8298760460
 C          3.0217915132        3.2218592226        0.7154247079
 C          2.8195409369        4.4214422193        1.5906725287
 C          3.9337278524        3.4622130750        1.8797279937
 H          4.9484697892        3.7739772211        1.6831745526
 H          3.8365197621        2.8058119048        2.7322218048
 H          3.0702159220        5.3951228970        1.1979262217
 H          1.9640778046        4.4195563813        2.2492624731
 H          3.4297829608        3.3738224852       -0.2769811323
