  62
        -98.93980746
 C          2.4957590417        0.9988591809       -0.0527548696
 C          3.6899932971        1.0615844224        0.7040495156
 C          4.8907172170        0.5333991740        0.0475383980
 C          4.8070724468        0.0462153479       -1.2040511173
 C          5.9465874274       -0.5098972949       -2.0143460508
 C          6.2559736711       -1.9851485286       -1.7249490174
 C          6.9324730307       -2.2567563995       -0.3806769369
 H          7.2856778172       -3.2896266229       -0.4029000100
 H          7.8084981441       -1.6153415324       -0.2794563963
 C          6.0160071327       -2.0757263802        0.8374628893
 H          4.9728372203       -2.0785920009        0.5121825443
 H          6.1404267850       -2.9226084469        1.5162316523
 C          6.2795986693       -0.8051039755        1.6457059157
 H          7.2772299521       -0.8526215745        2.0878023183
 H          5.5524966010       -0.7603504299        2.4607244486
 C          6.1647316157        0.4934221997        0.8364350231
 H          6.1491562710        1.3328892884        1.5358570646
 H          7.0252473947        0.6030073272        0.1769545573
 H          6.9174691856       -2.3409802687       -2.5181887790
 H          5.3261607063       -2.5554985836       -1.7869727242
 H          6.8417574910        0.0902281657       -1.8490440024
 H          5.6548919548       -0.4191712768       -3.0628108357
 O          3.6423499099        0.0206315377       -1.9049558779
 C          2.4564966350        0.4734301711       -1.3441908427
 O          1.4633777172        0.3641603624       -2.0877559825
 O          3.7484782531        1.5344132943        1.8711319884
 C          1.2054257373        1.4998419256        0.5699046619
 C          0.2058792957        0.3720263711        0.6507345555
 C          0.5945112293       -0.8206187493        1.2562942289
 C         -0.2805025599       -1.8848820512        1.3497521365
 C         -1.5646517326       -1.7857439411        0.8428549482
 C         -1.9678658699       -0.5981102151        0.2497975642
 C         -1.0872591323        0.4752145626        0.1652826839
 H         -1.4151918424        1.3911457421       -0.3007982294
 N         -3.2652300655       -0.4898975432       -0.2801301415
 S         -4.5359925926       -1.1710318573        0.5981133228
 O         -4.4279078459       -0.8048740241        1.9928279524
 O         -4.5806075530       -2.5851525274        0.3215564017
 C         -5.9365879801       -0.3651722182       -0.1526357199
 C         -6.4150628798       -0.8512818471       -1.3547349724
 C         -7.4890478516       -0.2133170748       -1.9545083756
 C         -8.0628665496        0.8935744682       -1.3464590362
 C         -7.5723287966        1.3688696904       -0.1396053918
 C         -6.4975181125        0.7363294271        0.4653294433
 H         -6.0890744779        1.0655248730        1.4073483166
 H         -8.0224338573        2.2277181760        0.3316990357
 H         -8.8996097895        1.3873159176       -1.8148724678
 H         -7.8750082166       -0.5809103830       -2.8915963467
 H         -5.9433834210       -1.7190545666       -1.7854555002
 H         -3.4818812367        0.4520795302       -0.5757776850
 H         -2.2574380279       -2.6093347962        0.9065333021
 H          0.0377574126       -2.8037760989        1.8197448597
 H          1.5982319437       -0.9020684312        1.6517000594
 H          1.4719754107        1.7913083700        1.5968820974
 C          0.6999794681        2.7220992142       -0.1664062584
 C         -0.1550347059        3.7291905018        0.5419853387
 C          1.2623883745        4.0642736593        0.1898966818
 H          1.4446458132        4.7736613377       -0.6032984337
 H          1.9942295431        4.0999212469        0.9835506398
 H         -0.9458833725        4.2149716779       -0.0096405553
 H         -0.3894458833        3.5433579494        1.5793314835
 H          0.5029099260        2.5248721876       -1.2142846503
