  62
        -98.93820338
 C          1.7674680214        0.2258030318       -0.8835992570
 C          2.9287271070       -0.5745412401       -1.0251184482
 C          4.2052431670        0.0903476256       -0.7081370157
 C          4.2092599458        1.3755884652       -0.3142406627
 C          5.4293596269        2.1451722440        0.0998462686
 C          5.6724497956        2.0288671525        1.6111529406
 C          5.6248784206        0.5938293600        2.1360414926
 H          4.6087250316        0.2078107778        2.0265549371
 H          5.8399382952        0.6317274282        3.2061954996
 C          6.6079731526       -0.3657420212        1.4510127102
 H          7.1013325872       -0.9675879406        2.2172257502
 H          7.3838291510        0.2030109468        0.9371720757
 C          5.9602046714       -1.3417070607        0.4670530840
 H          5.1224807703       -1.8489659673        0.9522782911
 H          6.6990902768       -2.1052752628        0.2093388448
 C          5.4573264072       -0.7297622675       -0.8464700886
 H          5.2028302451       -1.5537250656       -1.5196979298
 H          6.2539546969       -0.1425307620       -1.3076398190
 H          4.9056931507        2.6082818886        2.1305622044
 H          6.6446035231        2.4696425279        1.8394586438
 H          5.2764501058        3.1952162970       -0.1549149960
 H          6.2922641614        1.7707090127       -0.4473910275
 O          3.0762847101        2.1148354689       -0.2000516914
 C          1.8382250672        1.5597775907       -0.4713383319
 O          0.8821918331        2.3471369148       -0.3207436410
 O          2.9262426065       -1.7775384407       -1.3894689725
 C          0.3626327579       -0.2847210640       -1.1553350761
 C         -0.2460215348       -0.9231961117        0.0664397513
 C          0.4651391886       -1.8187050945        0.8582073011
 C         -0.1313110731       -2.4030410889        1.9607291098
 C         -1.4501958353       -2.1287903079        2.2782623108
 C         -2.1706279898       -1.2386989556        1.4912714901
 C         -1.5576587060       -0.6281104342        0.4063273453
 H         -2.1137983544        0.0833248045       -0.1841121344
 N         -3.5099326796       -0.9375166929        1.7741658139
 S         -4.5996562431       -0.8007726909        0.5075635555
 O         -5.8870494315       -1.0868773504        1.1028263144
 O         -4.2130652876       -1.6299160496       -0.6090752008
 C         -4.5412098191        0.9190228551        0.0546513968
 C         -4.2775852891        1.2759826293       -1.2527137871
 C         -4.2469433640        2.6205674753       -1.5872693255
 C         -4.4814499878        3.5789657252       -0.6136616986
 C         -4.7493601388        3.2037270557        0.6942733828
 C         -4.7810366967        1.8613327572        1.0349760996
 H         -4.9889232327        1.5305632126        2.0388543617
 H         -4.9303412793        3.9532682113        1.4477543478
 H         -4.4537650550        4.6245904397       -0.8768198886
 H         -4.0367515598        2.9137112198       -2.6034465908
 H         -4.0950653772        0.4991315213       -1.9790756728
 H         -3.9030053321       -1.4384213316        2.5576412509
 H         -1.9188555470       -2.5996603960        3.1291708039
 H          0.4319154113       -3.0932442749        2.5709150909
 H          1.4832873974       -2.0613851001        0.5944639387
 H         -0.2312991753        0.6159652559       -1.3799559243
 C          0.2747745693       -1.1900562501       -2.3770922673
 C          0.0867509355       -2.6718682255       -2.3007147483
 C         -1.0367742974       -1.8022426853       -2.7743088529
 H         -1.2979625154       -1.8218867329       -3.8220044695
 H         -1.8828104114       -1.6753564560       -2.1134223100
 H          0.6168543067       -3.2815779525       -3.0163154588
 H          0.0021297664       -3.1254769915       -1.3257746280
 H          0.9036323843       -0.8308218167       -3.1859286959
