  62
        -98.94266614
 C         -1.4178352362       -1.0803555630       -0.7872272672
 C         -1.0691519725       -1.9336261966        0.2853136147
 C          0.1710693329       -2.7139948168        0.1242055018
 C          0.9226552199       -2.5391024730       -0.9756453928
 C          2.1938745791       -3.2439121295       -1.3836127827
 C          3.2322052289       -3.5493280427       -0.2985169851
 C          3.3686327975       -2.4793946320        0.7944693820
 H          4.4205719354       -2.2053295517        0.8985446397
 H          2.8234964483       -1.5734173025        0.5218322299
 C          2.8633426717       -2.9504986447        2.1592293680
 H          3.3110045389       -2.3209896426        2.9321290338
 H          3.1957287512       -3.9770670201        2.3324403113
 C          1.3486563068       -2.8679558476        2.3339850693
 H          1.0446043360       -1.8172083343        2.3199165282
 H          1.0966149407       -3.2660320863        3.3203674808
 C          0.5244444402       -3.6155683806        1.2717312136
 H          1.0373231999       -4.5145421753        0.9365398453
 H         -0.4262076084       -3.9069386718        1.7270435779
 H          4.1900765517       -3.6722648489       -0.8075435881
 H          3.0010667036       -4.5054756689        0.1689468275
 H          2.6429142170       -2.6013835682       -2.1453775743
 H          1.9138708917       -4.1785688411       -1.8795725057
 O          0.5740661864       -1.6626117470       -1.9618459861
 C         -0.5858424603       -0.9110928905       -1.8910589244
 O         -0.7601331741       -0.1404616824       -2.8572759987
 O         -1.7700446697       -2.0613785340        1.3232121673
 C         -2.6599516913       -0.2096378299       -0.6999942644
 C         -2.4960867149        0.7369388401        0.4648398094
 C         -3.4646401637        0.9626214982        1.4330851190
 C         -3.2013786857        1.8104717499        2.4961519946
 C         -1.9719120414        2.4301011970        2.6262040763
 C         -1.0014583439        2.2210874087        1.6523893934
 C         -1.2833830016        1.4060833607        0.5704502011
 H         -0.5302563687        1.2509367715       -0.1886155431
 N          0.2620650499        2.8265113834        1.7290354486
 S          1.5986555639        1.9781975933        1.1799839308
 O          1.4675642283        0.5580750712        1.4007899071
 O          2.7212507539        2.6175155877        1.8369337785
 C          1.6772681465        2.3393598732       -0.5605371897
 C          2.0805598487        1.3480914594       -1.4318879661
 C          2.1636985135        1.6334027431       -2.7847846054
 C          1.8484737959        2.9037424207       -3.2396842967
 C          1.4541660881        3.8924997515       -2.3510557860
 C          1.3685383697        3.6123653639       -0.9970175862
 H          1.0588272084        4.3530102704       -0.2786987124
 H          1.2083806418        4.8787567534       -2.7107543548
 H          1.9066790516        3.1205180987       -4.2946265539
 H          2.4582901053        0.8594752536       -3.4751426658
 H          2.3000067051        0.3664249732       -1.0408703924
 H          0.4515962732        3.3231972727        2.5873090173
 H         -1.7595503198        3.0644990531        3.4732565939
 H         -3.9592093011        1.9743698537        3.2473087374
 H         -4.4182018608        0.4652024021        1.3652716326
 H         -2.6781130512        0.3858189511       -1.6247994987
 C         -3.9147532431       -1.0525801403       -0.6333346768
 C         -5.2126162293       -0.5107946403       -1.1505858236
 C         -4.4951575657       -1.5869663306       -1.9070319264
 H         -4.9084239768       -2.5843256565       -1.9064902191
 H         -3.9966055866       -1.3218024372       -2.8281687354
 H         -6.1233074020       -0.7712531411       -0.6327200855
 H         -5.2087581638        0.4862896597       -1.5641696779
 H         -3.9367039702       -1.6986461836        0.2363801783
