  62
        -98.94481711
 C         -2.4437820902       -1.1773838993       -0.0792586012
 C         -3.2104200600       -0.4778346400        0.8906516693
 C         -3.8697287699        0.7539310105        0.4427798303
 C         -3.7283329100        1.1437971914       -0.8367393994
 C         -4.2870353099        2.4101554419       -1.4160777084
 C         -3.2767796997        3.5608538917       -1.3057891776
 C         -2.6704439296        3.7214922906        0.0886100625
 H         -2.0492511397        2.8496521804        0.3101364918
 H         -2.0011249296        4.5840366305        0.0528080231
 C         -3.6993158996        3.9164543299        1.2114265827
 H         -4.6554401096        4.2244731203        0.7868373730
 H         -3.3568442294        4.7246072093        1.8609612533
 C         -3.9103500196        2.6895029892        2.1004986918
 H         -2.9421323297        2.3195678388        2.4475554514
 H         -4.4775913496        3.0016785986        2.9812649620
 C         -4.6692146298        1.5222476098        1.4568518009
 H         -4.9147513498        0.8083425692        2.2483135804
 H         -5.6008582398        1.8851357702        1.0185119812
 H         -3.7754856196        4.4872477920       -1.5968876369
 H         -2.4618402898        3.3769144922       -2.0104081678
 H         -4.5131798099        2.2371442327       -2.4695837186
 H         -5.2062337498        2.6682094416       -0.8937784482
 O         -3.0099152201        0.4382812920       -1.7446037300
 C         -2.3322724902       -0.7198891283       -1.3920480309
 O         -1.6970470703       -1.2249501077       -2.3410461413
 H          0.2363531497       -1.7799826886       -1.3656529118
 C          0.5922024698       -1.7490727594       -0.3463581818
 C         -0.2747310702       -2.0688900101        0.6894785780
 C          0.1937315199       -1.9860956812        1.9957377680
 C          1.4944483099       -1.5907661215        2.2553144382
 C          2.3494635199       -1.2576938508        1.2197046085
 C          1.8870123698       -1.3292514198       -0.0874641616
 N          2.7407956998       -0.9420013990       -1.1469595313
 S          3.0825043700        0.7092283509       -1.1720181901
 O          1.9960166601        1.4823036306       -0.6113883995
 O          3.4497767299        1.0113679019       -2.5385317899
 C          4.5255946000        0.8461893500       -0.1381000001
 C          4.4816653402        1.6141900091        1.0087130005
 C          5.6173531302        1.7028612384        1.7989513405
 C          6.7696074201        1.0257096186        1.4298819199
 C          6.7977430300        0.2602427294        0.2733325094
 C          5.6664909399        0.1681699202       -0.5216067006
 H          5.6445376898       -0.4110406891       -1.4295108511
 H          7.6956835799       -0.2645777204       -0.0101605411
 H          7.6510077002        1.0951626180        2.0475864800
 H          5.5970688103        2.2975968577        2.6980106910
 H          3.5607246902        2.1168545990        1.2575302009
 H          2.3676951097       -1.2041180583       -2.0501169415
 H          3.3603444299       -0.9380036810        1.4139981486
 H          1.8436111100       -1.5328293123        3.2748883283
 H         -0.4793548101       -2.2122764817        2.8099835179
 C         -1.7144482703       -2.4225228497        0.4031334778
 H         -2.1926341103       -2.6818171604        1.3571417676
 C         -1.8386577805       -3.6072597090       -0.5322705331
 C         -1.5983676306       -4.9838143295        0.0088356658
 C         -2.9859152705       -4.5553931590       -0.3608821938
 H         -3.4407216206       -4.9762786983       -1.2449780941
 H         -3.6871533005       -4.3520973296        0.4352712264
 H         -1.3589092805       -5.0725489003        1.0576156258
 H         -1.0974293207       -5.7035271290       -0.6200302047
 H         -1.5179995205       -3.3990133383       -1.5444886830
 O         -3.3382666300       -0.8724142908        2.0800882690
