  62
        -98.93977147
 C         -2.2107256930       -0.7834288961        0.1246104299
 C         -2.4462368073        0.3620224401        0.9218918253
 C         -3.1515981886        1.4668431922        0.2634974109
 C         -3.4823728458        1.3651863725       -1.0368886454
 C         -4.1804295268        2.4160475750       -1.8569673854
 C         -5.7091378511        2.4000821215       -1.7200879558
 C         -6.2489288038        2.9216229225       -0.3877260891
 H         -5.8182766153        3.9018763506       -0.1810907115
 H         -7.3252445091        3.0580235882       -0.5100565921
 C         -6.0029284458        1.9869098121        0.8048902826
 H         -5.7548360460        0.9876219028        0.4396900757
 H         -6.9204404354        1.8942586892        1.3903606114
 C         -4.9026394084        2.4520617144        1.7588189961
 H         -4.7889502776        1.6993594912        2.5431972761
 H         -5.2008802124        3.3896889361        2.2330421770
 C         -3.5345732047        2.6544839903        1.0942382485
 H         -3.5420056955        3.5587475381        0.4861532371
 H         -2.7843183415        2.7663157298        1.8808788532
 H         -6.1139983754        3.0235707188       -2.5205418207
 H         -6.0635018189        1.3795805844       -1.8826242746
 H         -3.8003994591        3.4026882584       -1.5905408565
 H         -3.9261083645        2.2147588943       -2.8997967800
 O         -3.1900536509        0.2674437333       -1.7835534991
 C         -2.5653805501       -0.8383459495       -1.2237442991
 O         -2.3838702153       -1.7790328850       -2.0186462323
 O         -2.0766028112        0.4596969309        2.1237900429
 C         -1.5108268479       -1.9774334212        0.7492584321
 C         -0.1749032127       -2.1896370980        0.0795049892
 C          0.2085199010       -3.3823525672       -0.5169111048
 C          1.4508920228       -3.4949042460       -1.1183679194
 C          2.3335449932       -2.4315800620       -1.1351694134
 C          1.9650111846       -1.2361817223       -0.5297462487
 C          0.7222031491       -1.1274022223        0.0749439826
 H          0.4322988410       -0.1973558759        0.5488565888
 N          2.8485680925       -0.1378957945       -0.5488371723
 S          4.4557960428       -0.4481617682       -0.1240597647
 O          5.1231986735       -1.0344220228       -1.2588579258
 O          4.5066472008       -1.2136353009        1.1020249392
 C          5.0657377661        1.2035393298        0.1460622642
 C          5.1232259130        1.7030006490        1.4332170120
 C          5.5789903187        2.9971675146        1.6298756014
 C          5.9640064886        3.7659785070        0.5418528711
 C          5.9008379045        3.2502393116       -0.7442685187
 C          5.4474492606        1.9567320353       -0.9479217249
 H          5.3899212967        1.5109323735       -1.9271279560
 H          6.2036905293        3.8504771502       -1.5869782408
 H          6.3187403804        4.7724875337        0.6980189634
 H          5.6321977680        3.3995150825        2.6287427111
 H          4.8221464194        1.0666999618        2.2501127833
 H          2.4875373899        0.6375846536       -0.0090220320
 H          3.3037104647       -2.5122720236       -1.5979114633
 H          1.7355439732       -4.4265573283       -1.5840036669
 H         -0.4649788723       -4.2232338931       -0.5185444382
 H         -1.3205304666       -1.6882020592        1.7936900532
 C         -2.4067030987       -3.1969228141        0.7392467292
 C         -2.1961572103       -4.2881662458        1.7446483872
 C         -3.3867280104       -3.3853267633        1.8568492050
 H         -4.3624826421       -3.7850771449        1.6250060688
 H         -3.3947834642       -2.6430860853        2.6418125562
 H         -2.3557256586       -5.3106374929        1.4375838332
 H         -1.3943069542       -4.1624327538        2.4565225074
 H         -2.7280414670       -3.4730163756       -0.2584810556
