  62
        -98.93543245
 C          1.0658575602        1.6150346590        0.4489923832
 C          1.6191171547        0.5397976127        1.1879274375
 C          2.8109254728       -0.1178984014        0.6210667395
 C          3.2916905094        0.3149912449       -0.5569128090
 C          4.4905779396       -0.1876824910       -1.3143886250
 C          4.0932679568       -1.2654246853       -2.3364904672
 C          4.0804697625       -2.6905840581       -1.7875696460
 H          3.6772177264       -3.3372667551       -2.5700401687
 H          5.1068147221       -3.0101628325       -1.5950749492
 C          3.2553150604       -2.8847363792       -0.5134393362
 H          3.0151674763       -3.9461367334       -0.4333875134
 H          2.3131004509       -2.3411683782       -0.6013991626
 C          3.9918746793       -2.4441018712        0.7603176656
 H          3.9777780812       -3.2573239676        1.4891341025
 H          5.0402408898       -2.2615588577        0.5263224196
 C          3.3978910234       -1.2179321239        1.4636763372
 H          2.5757940237       -1.5329959931        2.1140658661
 H          4.1590713889       -0.7812438478        2.1199033920
 H          3.1047921176       -1.0102793724       -2.7269466100
 H          4.7940892750       -1.2294396942       -3.1731095331
 H          5.2525326732       -0.5536201851       -0.6326469568
 H          4.8910428886        0.6725520918       -1.8553301195
 O          2.6835211255        1.3014773762       -1.2714378407
 C          1.5504661022        1.9563291958       -0.8147759831
 O          1.1005046660        2.7951712336       -1.6159668754
 O          1.1382328750        0.1428536792        2.2829440086
 C         -0.1624836130        2.3003057952        1.0224513806
 C         -1.2858587425        2.2216567422        0.0214780741
 C         -1.7965900423        3.3156996374       -0.6630478283
 C         -2.8030751337        3.1417330235       -1.5970279782
 C         -3.3325261268        1.8886372469       -1.8480732113
 C         -2.8313463924        0.7876973224       -1.1630003216
 C         -1.8102788969        0.9632192512       -0.2448530721
 H         -1.4084589289        0.1070256626        0.2769867974
 N         -3.3317886254       -0.5074905342       -1.3829373789
 S         -3.6919049971       -1.4475913530       -0.0399998818
 O         -4.6232669699       -2.4405423921       -0.5331007984
 O         -4.1603952490       -0.6310637569        1.0562431555
 C         -2.1684011023       -2.2558027065        0.3976811733
 C         -1.6826628249       -2.1352893180        1.6844753392
 C         -0.5093285092       -2.7889506282        2.0238562529
 C          0.1508380766       -3.5525024789        1.0746626675
 C         -0.3512593535       -3.6664022094       -0.2133313849
 C         -1.5230901108       -3.0136096677       -0.5593858894
 H         -1.9457528540       -3.0790932186       -1.5483503615
 H          0.1693887154       -4.2595600844       -0.9480307054
 H          1.0652953762       -4.0581363103        1.3409533034
 H         -0.1120313900       -2.6862477986        3.0207334297
 H         -2.2214577151       -1.5224930937        2.3899162321
 H         -4.0715064280       -0.5595199035       -2.0689097944
 H         -4.1232086212        1.7595981982       -2.5720623578
 H         -3.1857447406        3.9964679323       -2.1342970648
 H         -1.3878961487        4.2966284923       -0.4838611504
 H         -0.4430028960        1.6694871952        1.8827599681
 C          0.0671604715        3.6962722650        1.5778600491
 C          1.3762604711        4.0597830889        2.2116476478
 C          0.9565653274        4.7133261272        0.9308787445
 H          0.6488551849        5.7485683126        0.9645507677
 H          1.4601955378        4.4387038029        0.0184825224
 H          1.3669738819        4.6445722067        3.1191346539
 H          2.1669428272        3.3243123197        2.1715550544
 H         -0.8251141981        4.0787637846        2.0654758688
