  62
        -98.93885850
 C          1.8865806703        0.8908136142       -0.0990360118
 C          2.4703213880        0.1309633808        0.9387309718
 C          3.6006746074       -0.7451146186        0.5744129966
 C          3.9795865167       -0.8066867060       -0.7160016575
 C          5.1152862859       -1.5915943639       -1.3167594251
 C          6.4867332151       -0.9543876932       -1.0402200946
 C          6.6923376521       -0.4667633961        0.3915547271
 H          7.6506490616        0.0578738949        0.4288580592
 H          5.9158994473        0.2598335598        0.6375089837
 C          6.7185736893       -1.5622149987        1.4547982562
 H          6.9608984842       -1.0840287643        2.4073273491
 H          7.5209714664       -2.2664678904        1.2239520899
 C          5.4193412882       -2.3497581095        1.6367413267
 H          5.5068070979       -2.9098247200        2.5724986852
 H          5.2931866505       -3.0868465105        0.8481492981
 C          4.1649714736       -1.4904856883        1.7603434395
 H          3.3466344616       -2.1216828375        2.1282523979
 H          4.3213100090       -0.7391151968        2.5428612639
 H          6.5981913312       -0.0934977969       -1.7039166717
 H          7.2613961091       -1.6793573168       -1.2957115752
 H          4.9494856158       -1.6049472693       -2.3963393469
 H          5.0869723386       -2.6190199111       -0.9659275533
 O          3.3584252512       -0.0851751314       -1.6922651321
 C          2.3082243050        0.7734190591       -1.4230487419
 O          1.8483326282        1.3555645724       -2.4228019663
 O          2.0663992163        0.1773380354        2.1336114195
 C          0.7330545540        1.8221660876        0.2291684857
 C         -0.5173467871        1.3392172890       -0.4638041479
 C         -1.2926429451        2.1308537510       -1.2994696143
 C         -2.4156346567        1.6063902843       -1.9175899883
 C         -2.7957534918        0.2943855717       -1.7075141224
 C         -2.0394281301       -0.4999524082       -0.8535826821
 C         -0.9154282606        0.0263975059       -0.2371350747
 H         -0.3234135775       -0.5947691812        0.4236766028
 N         -2.4289877592       -1.8278768141       -0.6138499052
 S         -4.0525111525       -2.1406115367       -0.3589351113
 O         -4.0835355496       -3.3259913682        0.4691487877
 O         -4.7321189091       -2.2430920831       -1.6264235379
 C         -4.6699455012       -0.7299088635        0.5429524519
 C         -4.0835182344       -0.4234519124        1.7550384773
 C         -4.5304277442        0.6858410280        2.4540629304
 C         -5.5515664359        1.4655663932        1.9323822959
 C         -6.1343451029        1.1410027025        0.7174671711
 C         -5.6895577054        0.0338651125        0.0126515325
 H         -6.1112759728       -0.2524515631       -0.9370489607
 H         -6.9295246770        1.7476498669        0.3152300118
 H         -5.8941743648        2.3305947485        2.4778714525
 H         -4.0778201722        0.9390402204        3.3994118897
 H         -3.2937987212       -1.0509608914        2.1367341033
 H         -1.8473562072       -2.3153381904        0.0509977309
 H         -3.6553317094       -0.1323919146       -2.1982174151
 H         -3.0010691546        2.2285925018       -2.5769190588
 H         -1.0114124087        3.1548174019       -1.4798329906
 H          0.5798911138        1.7218133416        1.3138258735
 C          1.0934461221        3.2585419693       -0.0817669650
 C          0.4093641629        4.3770712053        0.6442504113
 C          1.8421137157        4.0558160735        0.9424749317
 H          2.6075472250        4.7386000093        0.6053162354
 H          2.0748681616        3.5690707606        1.8784622772
 H          0.1910555432        5.2854537297        0.1036332378
 H         -0.3329311396        4.1127121544        1.3818030418
 H          1.3597710478        3.4070405369       -1.1219310835
