  62
        -98.94601874
 C          1.4707058296        1.0703272104        0.0668596390
 C          2.3653802401        0.6841592814        1.0916920089
 C          2.9887123705       -0.6350693185        0.9313207295
 C          2.6548661103       -1.4075733493       -0.1185933999
 C          3.1833103207       -2.7876506093       -0.4031766892
 C          4.5342747904       -2.7999915793       -1.1317309398
 C          5.7379495606       -2.3976695584       -0.2787570205
 H          5.7474792111       -2.9892992778        0.6373106999
 H          6.6337095204       -2.6609367785       -0.8447701707
 C          5.7968796402       -0.9038578582        0.0700144186
 H          5.1381980298       -0.3465553788       -0.5999462515
 H          6.8102921400       -0.5311460679       -0.0949241521
 C          5.4242146507       -0.5748295674        1.5156576785
 H          5.4630572604        0.5103039327        1.6413220678
 H          6.1571166511       -1.0178158367        2.1937584285
 C          4.0257439510       -1.0501745876        1.9307826893
 H          4.0198000514       -2.1323668375        2.0612335600
 H          3.7740129612       -0.5818436470        2.8858609691
 H          4.6984857106       -3.8169635695       -1.4953553392
 H          4.4685927298       -2.1423282699       -2.0014247902
 H          3.2657321212       -3.3496194087        0.5277392211
 H          2.4465442106       -3.2804555399       -1.0410747886
 O          1.7539272498       -1.0178841802       -1.0588493698
 C          1.1552935394        0.2349539897       -1.0059139403
 O          0.3758973090        0.4716184988       -1.9446241502
 H         -0.5473426997        0.7155624308        1.6861185300
 C         -1.2271303401        1.2642722802        1.0454053300
 C         -0.7136210007        2.2201512598        0.1767689992
 C         -1.5981579013        2.9184137790       -0.6334961109
 C         -2.9559928112        2.6499228486       -0.5848841602
 C         -3.4599828605        1.6855810690        0.2675265806
 C         -2.5836288900        0.9893382098        1.0904924607
 N         -3.0829931293       -0.0106894899        1.9489381915
 S         -4.0203518792       -1.1967628206        1.2229837926
 O         -5.3663471294       -0.7055602011        1.0653475528
 O         -3.8706680585       -2.3660151900        2.0611863433
 C         -3.2802663898       -1.4667269714       -0.3766202775
 C         -2.0098585096       -2.0057278310       -0.4235355577
 C         -1.4025087500       -2.1850937116       -1.6545875578
 C         -2.0694352406       -1.8154665025       -2.8118740878
 C         -3.3438568108       -1.2756323229       -2.7483242976
 C         -3.9583160803       -1.0970168923       -1.5194322975
 H         -4.9476312304       -0.6800541526       -1.4246533874
 H         -3.8571756912       -0.9873416536       -3.6514991476
 H         -1.5846293109       -1.9433963129       -3.7664752379
 H         -0.4047469999       -2.5902326313       -1.7082398880
 H         -1.5163850492       -2.2821014103        0.4957503323
 H         -2.3683650090       -0.4356252093        2.5224380215
 H         -4.5122041604        1.4553659287        0.3093979811
 H         -3.6307691216        3.1956920280       -1.2262811803
 H         -1.2246121418        3.6661916687       -1.3131991115
 C          0.7816944992        2.4202483003        0.1544782584
 H          1.0880373394        2.8451062310        1.1221110381
 C          1.2581389885        3.3364330997       -0.9524670723
 C          1.2547091181        4.8221466299       -0.7553492132
 C          2.5515516283        4.0718111703       -0.7755781033
 H          3.2023145779        4.1853223899       -1.6296047936
 H          3.0781693587        3.9317729710        0.1573628766
 H          0.9031302983        5.2000005403        0.1927880167
 H          1.0170882475        5.4542971293       -1.5975161835
 H          1.0340275482        2.9478964591       -1.9394552920
 O          2.6209168403        1.3996997421        2.0984369584
