  62
        -98.94628259
 C          2.5714703304        0.0094229951       -0.4349502036
 C          2.1960913381        0.5833142972        0.8036499428
 C          1.8855209333        2.0177242234        0.7729828121
 C          1.9559501762        2.6930560901       -0.3887093927
 C          1.7271152918        4.1692955756       -0.5741425342
 C          0.2531557324        4.5666562007       -0.7256590577
 C         -0.5673679007        4.5074155375        0.5627373717
 H         -0.0469983547        5.0518498994        1.3516132103
 H         -1.5074558408        5.0279234348        0.3698738927
 C         -0.8837414430        3.0838144744        1.0396505969
 H         -1.9358197190        3.0159287991        1.3281440136
 H         -0.7471189849        2.3754854277        0.2184655930
 C         -0.0660585514        2.6064953880        2.2398060397
 H         -0.3443629560        1.5664068195        2.4299344424
 H         -0.3297508662        3.1965845052        3.1213371032
 C          1.4544137681        2.6737902919        2.0496881338
 H          1.7898032646        3.7112889307        2.0756634873
 H          1.9247309152        2.1313354437        2.8740234868
 H          0.2288111720        5.5917517971       -1.1030537746
 H         -0.2079424678        3.9208110508       -1.4767929695
 H          2.1669345259        4.7131986523        0.2626510466
 H          2.2552095741        4.4495398612       -1.4882594425
 O          2.2953898114        2.0973671116       -1.5635025278
 C          2.5890694600        0.7451368712       -1.6183021264
 O          2.8607121057        0.3234920938       -2.7626509549
 H          0.3280263553       -1.0202232250       -0.9580692878
 C          0.4710857649       -1.9068709455       -0.3579306801
 C          1.7582297937       -2.3003804134       -0.0170299570
 C          1.9201660975       -3.4515866428        0.7435774513
 C          0.8156237844       -4.1684268455        1.1702127462
 C         -0.4652428539       -3.7476146349        0.8635179091
 C         -0.6373199651       -2.6042671684        0.0918643862
 N         -1.9259847426       -2.1460112627       -0.2571547306
 S         -2.2184843248       -0.4961800892       -0.0067942309
 O         -1.5705013494        0.2669229382       -1.0438967332
 O         -1.9004873346       -0.1486329736        1.3590303402
 C         -3.9838759678       -0.4508945682       -0.2553161203
 C         -4.4656907082       -0.6009983826       -1.5419344419
 C         -5.8357449331       -0.5970036914       -1.7489549768
 C         -6.6965017737       -0.4426519466       -0.6719718059
 C         -6.1980952114       -0.2897147602        0.6128008751
 C         -4.8283021626       -0.2954639412        0.8269382017
 H         -4.3934058519       -0.1758459114        1.8062621688
 H         -6.8692390863       -0.1665239320        1.4474262164
 H         -7.7624434137       -0.4393442540       -0.8361520763
 H         -6.2263807960       -0.7133318143       -2.7469806759
 H         -3.7577844320       -0.7086968870       -2.3472676876
 H         -2.6479287343       -2.6820118466        0.2091631248
 H         -1.3254629414       -4.2958367307        1.2176594814
 H          0.9544226963       -5.0588266281        1.7646522314
 H          2.9107274942       -3.7823716281        1.0101767475
 C          2.9146631516       -1.4666742454       -0.5143792299
 H          3.0588043358       -1.6878779284       -1.5830136063
 C          4.2113628355       -1.7421166358        0.2201115136
 C          5.1340830770       -2.8261027432       -0.2481667037
 C          5.5058598831       -1.3883143231       -0.4462653332
 H          6.2982785926       -0.9695126986        0.1554653710
 H          5.4496949648       -0.9754297629       -1.4432605551
 H          5.6772896664       -3.3956612811        0.4908114712
 H          4.8377717751       -3.3945949518       -1.1167669861
 H          4.1295381067       -1.5592085290        1.2855494246
 O          2.1463643020       -0.0632317538        1.8835549428
