  62
        -98.94722618
 C         -0.8846225544       -1.5889754881       -0.8432916995
 C         -2.1761620245       -1.6127107346       -0.2560316797
 C         -3.0283975814       -0.4458677124       -0.4998745900
 C         -2.5649766885        0.5682471763       -1.2513261300
 C         -3.2950755850        1.8443970882       -1.5703194003
 C         -3.1806077724        2.9035152180       -0.4650730204
 C         -4.0241890134        2.6326887804        0.7812187895
 H         -4.0465560710        3.5587571006        1.3594531194
 H         -5.0497202139        2.4061199432        0.4862904393
 C         -3.4808650865        1.5105253491        1.6772310497
 H         -2.4289815670        1.3283576262        1.4405519199
 H         -3.5124912759        1.8341986793        2.7208247497
 C         -4.2555120800        0.1947086111        1.5916770697
 H         -5.2649568597        0.3392959439        1.9848799195
 H         -3.7483142021       -0.5387096301        2.2239455299
 C         -4.3635097714       -0.3925394487        0.1788722998
 H         -4.7341052641       -1.4173932477        0.2635685998
 H         -5.0691638997        0.1871168731       -0.4162435904
 H         -2.1320301322        2.9931974253       -0.1680889402
 H         -3.4925388798        3.8601943688       -0.8913997505
 H         -2.8452019938        2.2432846569       -2.4821423702
 H         -4.3466613256        1.6319016710       -1.7654252805
 O         -1.3421079985        0.5377351030       -1.8361394598
 C         -0.4577149413       -0.5113222994       -1.6198622295
 O          0.6416274192       -0.3477041824       -2.1854676893
 H          1.3287299886       -0.4161065540        0.0505741608
 C          1.3806157066       -1.1000634740        0.8813569409
 C          0.8092872933       -2.3591320325        0.7771333209
 C          0.9203270707       -3.2298003827        1.8545853211
 C          1.5654231816       -2.8339065843        3.0134302011
 C          2.0742841550       -1.5529538456        3.1360891211
 C          1.9692644875       -0.6772438255        2.0619617110
 N          2.4338918311        0.6444955133        2.1343344709
 S          1.5325002344        1.8486037056        1.3873068506
 O          1.8765391675        3.0544458748        2.1166866506
 O          0.1246937636        1.5254175194        1.3532476304
 C          2.1982835351        1.9909811137       -0.2552791193
 C          3.5174281143        1.6601970201       -0.4897625490
 C          4.0312703950        1.8322974886       -1.7645593489
 C          3.2257188565        2.3355438106       -2.7741501391
 C          1.9052027773        2.6677017042       -2.5203672194
 C          1.3848289766        2.4951550257       -1.2486352295
 H          0.3556336672        2.7213800885       -1.0169273397
 H          1.2735091085        3.0473132958       -3.3074043096
 H          3.6263690170        2.4631789695       -3.7675432491
 H          5.0566718543        1.5679441058       -1.9682277887
 H          4.1127792831        1.2626908386        0.3155679812
 H          2.7667968617        0.9365961425        3.0418101610
 H          2.5383311657       -1.2292342968        4.0552586211
 H          1.6463967096       -3.5197368944        3.8430650712
 H          0.4775612081       -4.2125565415        1.7903861211
 C          0.0425567625       -2.7338942806       -0.4713347792
 H         -0.6150053098       -3.5768360288       -0.2167758992
 C          0.9863995015       -3.1745610732       -1.5712990489
 C          1.5243020778       -4.5729983747       -1.5547193487
 C          0.5165625690       -4.1695478321       -2.5879981889
 H          0.8393435996       -4.0489951431       -3.6108373989
 H         -0.4921559120       -4.5440235094       -2.4904724091
 H          1.1986926759       -5.2280440237       -0.7610949387
 H          2.5445010474       -4.7338176074       -1.8669137685
 H          1.6412267437       -2.3845100750       -1.9141653889
 O         -2.5975188772       -2.5742763834        0.4433755103
