  62
        -98.93601899
 C          0.8202433159        1.7359473070        0.3524070137
 C          1.5534732950        0.7868499976        1.1048610800
 C          2.7609476970        0.2115409170        0.4799220098
 C          3.0775119344        0.5840085779       -0.7738818347
 C          4.2494332262        0.1546520868       -1.6179934954
 C          4.0889529520       -1.2586160605       -2.1952958142
 C          3.6181605543       -2.3029293556       -1.1881280740
 H          2.6487075075       -1.9994495988       -0.7902967744
 H          3.4721089942       -3.2412509008       -1.7289277907
 C          4.5836912494       -2.5719755337       -0.0360099032
 H          4.1986005313       -3.4310074615        0.5187087369
 H          5.5578887548       -2.8530685024       -0.4417464708
 C          4.7806062085       -1.4233696768        0.9574805769
 H          5.4822083235       -0.6850090411        0.5778322064
 H          5.2361066407       -1.8462626503        1.8575482662
 C          3.4924032064       -0.7363661554        1.3992708161
 H          3.6982301155       -0.1586399694        2.3083179906
 H          2.7606404040       -1.4939287972        1.7005863359
 H          5.0445986992       -1.5638092413       -2.6254584747
 H          3.3536428687       -1.2142380062       -3.0023020852
 H          4.3107863531        0.8640983336       -2.4464107608
 H          5.1698106499        0.2336221224       -1.0468528879
 O          2.2962273969        1.4415056827       -1.4902111263
 C          1.1521550764        2.0238346630       -0.9720233339
 O          0.5498631066        2.7544179188       -1.7797265431
 O          1.2197393375        0.4282693222        2.2664854539
 C         -0.4148520543        2.3421533160        0.9947261458
 C         -1.6044209173        2.1247268435        0.0958194394
 C         -2.3005842364        3.1473406308       -0.5334640763
 C         -3.3640976252        2.8529927028       -1.3687418063
 C         -3.7647556685        1.5457749022       -1.5760070506
 C         -3.0755767013        0.5146518911       -0.9474715091
 C         -2.0018276642        0.8118981294       -0.1259162736
 H         -1.4592598968        0.0103182379        0.3547533417
 N         -3.4388556077       -0.8284613905       -1.1373060179
 S         -3.4562386434       -1.8552970683        0.1854436787
 O         -4.3348617529       -2.9365430533       -0.2089535489
 O         -3.8214254104       -1.1529867584        1.3937459629
 C         -1.7989721607       -2.4911635378        0.3103628219
 C         -1.1423134643       -2.4456346407        1.5236793461
 C          0.1251758994       -2.9966991165        1.6223659539
 C          0.7091269813       -3.5826062140        0.5105493440
 C          0.0392446557       -3.6143974299       -0.7036833021
 C         -1.2287708082       -3.0669095635       -0.8079094317
 H         -1.7836877003       -3.0791040108       -1.7312871758
 H          0.5024737636       -4.0651397691       -1.5666495120
 H          1.6926084802       -4.0183026217        0.5903221924
 H          0.6480427376       -2.9587147747        2.5648632384
 H         -1.6270280042       -1.9729515795        2.3633947852
 H         -4.2458209368       -0.9695789515       -1.7277653545
 H         -4.5987526134        1.3207821850       -2.2236998030
 H         -3.8923622143        3.6545956877       -1.8626261140
 H         -1.9943300691        4.1704323389       -0.3898420780
 H         -0.5710791865        1.7348116315        1.9024888190
 C         -0.2577411078        3.7792485010        1.4650897695
 C          1.0726853030        4.2928103879        1.9270325001
 C          0.4560715283        4.8315287723        0.6727773613
 H          0.0597871957        5.8365455409        0.6910149666
 H          0.8792142840        4.5472620593       -0.2770209658
 H          1.1063859189        4.9260047589        2.8008849548
 H          1.9206111147        3.6296159704        1.8331900748
 H         -1.1227085124        4.1077275216        2.0342640050
