  62
        -98.93521204
 C          1.6970979115        1.0156398525        0.2410169760
 C          2.1425210442       -0.3259266603        0.3015942033
 C          3.6013820110       -0.5289708805        0.4244430678
 C          4.4202875960        0.5354141626        0.5000142800
 C          5.9232768114        0.6319010216        0.6604823567
 C          6.8138737346       -0.5873219710        0.4361672095
 C          6.8653102352       -1.0855700365       -1.0077633204
 H          7.3952542073       -0.3452286764       -1.6124092764
 H          7.4466534967       -2.0099423423       -1.0295047287
 C          5.5118281555       -1.3350585148       -1.6686376429
 H          4.9620600919       -0.3947596508       -1.7460301390
 H          5.6965891867       -1.6832181327       -2.6885939172
 C          4.6274088421       -2.3714480905       -0.9777898110
 H          3.7753597190       -2.5678899247       -1.6347624486
 H          5.1790562515       -3.3062812886       -0.8605061676
 C          4.0672931686       -1.9560587247        0.3938258505
 H          3.1853238276       -2.5703882501        0.5986203751
 H          4.7860476724       -2.1429751908        1.1880643745
 H          6.5273085324       -1.3922510145        1.1065241143
 H          7.8271829184       -0.2874940577        0.7171168885
 H          6.2420105379        1.4353363460       -0.0112954818
 H          6.0899421101        0.9990260481        1.6792309778
 O          3.9366074316        1.8126090605        0.4908571509
 C          2.5870217809        2.0847159624        0.3626894599
 O          2.3079540744        3.2997716795        0.3787580823
 H         -1.6532143306       -0.5599659778       -0.5319761002
 C         -1.5485067840       -0.3868593972        0.5252731494
 C         -0.6198073446        0.5232270262        1.0030481195
 C         -0.4705915431        0.6646424403        2.3806036720
 C         -1.2248908837       -0.0932268959        3.2544436867
 C         -2.1629768636       -0.9906834445        2.7742314096
 C         -2.3182616067       -1.1399953137        1.4018959668
 N         -3.2596854291       -2.0387229218        0.8834126825
 S         -4.0577338167       -1.6982692028       -0.5393759535
 O         -5.2970230185       -2.4408860671       -0.4416407944
 O         -3.2336187331       -2.0087171184       -1.6799035188
 C         -4.3956814021        0.0544129225       -0.4922648836
 C         -4.0109117746        0.8501885209       -1.5516444140
 C         -4.2740159669        2.2100296148       -1.5018146603
 C         -4.9129314502        2.7486213123       -0.3960304626
 C         -5.3000307529        1.9351235562        0.6579003465
 C         -5.0420712264        0.5748842552        0.6114001002
 H         -5.3376480999       -0.0827377133        1.4123494722
 H         -5.7993611231        2.3570705798        1.5150788716
 H         -5.1107401880        3.8081581891       -0.3568638856
 H         -3.9755747471        2.8435897977       -2.3220817105
 H         -3.5100833283        0.3908705085       -2.3891804506
 H         -3.8528700153       -2.4890505691        1.5636066608
 H         -2.7565416117       -1.5822036331        3.4544665182
 H         -1.0896047324        0.0199989268        4.3195515560
 H          0.2592259661        1.3697260056        2.7554140083
 C          0.2286720248        1.3748039086        0.0924767450
 H          0.1567644623        2.4165861386        0.4465220812
 C         -0.2685317498        1.3713040755       -1.3453350231
 C          0.6404640213        1.7211783057       -2.4842075354
 C          0.1365455168        0.3188400076       -2.3309932559
 H         -0.6045317159       -0.0476260366       -3.0271968261
 H          0.8222723437       -0.4432273095       -1.9954730470
 H          0.2477600151        2.3264677819       -3.2871612948
 H          1.6773993664        1.9204049473       -2.2549956590
 H         -1.2891443291        1.7357580190       -1.4153053002
 O          1.3767778048       -1.3231066197        0.2625718832
