  62
        -98.94608129
 C          1.0290345347        1.6233182615        0.6317849304
 C          1.8012951823        1.5110324615       -0.5491761606
 C          2.8893914344        0.5237848940       -0.5094206179
 C          3.0775864260       -0.2071768579        0.6043427968
 C          4.1458200507       -1.2480277021        0.7729984818
 C          3.6487967490       -2.6424408257        0.3695766947
 C          2.9282437850       -2.6768723035       -0.9775889042
 H          2.6400850299       -3.7125784255       -1.1665556906
 H          2.0053808225       -2.0964028222       -0.9045053426
 C          3.7648693822       -2.1596745572       -2.1562569594
 H          4.8224111800       -2.1618893142       -1.8893024085
 H          3.6419187248       -2.8429579021       -2.9990411017
 C          3.3735785676       -0.7671006129       -2.6539298494
 H          3.8681511867       -0.5978745908       -3.6142679255
 H          2.2954278812       -0.7286708359       -2.8300505039
 C          3.7519982993        0.4002053351       -1.7336108738
 H          4.8064493651        0.3266786749       -1.4594123431
 H          3.6069663132        1.3274538563       -2.2956550120
 H          4.5048632942       -3.3189953131        0.3441394829
 H          2.9566577538       -2.9930832910        1.1362414652
 H          5.0081477065       -0.9689255069        0.1703367657
 H          4.4415863331       -1.2668731341        1.8234029198
 O          2.2878778016       -0.0993615424        1.7041089299
 C          1.2445624009        0.8113448202        1.7443337054
 O          0.5929532738        0.8012842059        2.8092896360
 O          1.6031422347        2.2062983119       -1.5792890899
 C         -0.1006276764        2.6349821422        0.6993420899
 C         -1.1323375394        2.3197127728       -0.3566037263
 C         -1.6098829767        3.2472180958       -1.2722488130
 C         -2.5633725698        2.8782787698       -2.2057030790
 C         -3.0795314424        1.5961714728       -2.2245555671
 C         -2.6160649723        0.6622303843       -1.3036986977
 C         -1.6379669617        1.0256933237       -0.3938825902
 H         -1.2712127466        0.2967199712        0.3139412389
 N         -3.1197883861       -0.6470848021       -1.2871118182
 S         -3.4026932316       -1.4222342796        0.1720184942
 O         -4.4826585043       -2.3429544560       -0.1170448111
 O         -3.6400198972       -0.4782111390        1.2375321558
 C         -1.9309523955       -2.3759489567        0.4754823703
 C         -1.6674732361       -3.4310946438       -0.3769815194
 C         -0.5627462548       -4.2297973896       -0.1352937838
 C          0.2576813769       -3.9623427880        0.9504856277
 C         -0.0121955630       -2.8929729985        1.7897494828
 C         -1.1192080711       -2.0919945864        1.5547416033
 H         -1.3526731107       -1.2549361969        2.1959574491
 H          0.6287910516       -2.6665663741        2.6277697927
 H          1.1093731876       -4.5947912806        1.1459453435
 H         -0.3458061920       -5.0597089242       -0.7881414030
 H         -2.3399981310       -3.6147731360       -1.1982193971
 H         -3.8637480748       -0.8205244922       -1.9474611794
 H         -3.8335078605        1.3149631447       -2.9441450116
 H         -2.9186728799        3.6045381434       -2.9210386099
 H         -1.2316651916        4.2559751168       -1.2620360119
 H         -0.5786551215        2.4948862335        1.6806376710
 C          0.4471474752        4.0444568299        0.6212572948
 C         -0.3072931549        5.1792516126        1.2440135175
 C          0.9630583148        4.6902130040        1.8705933351
 H          1.8443181134        5.3104835903        1.8049925075
 H          0.8973679433        4.1210887373        2.7868577931
 H         -0.2972567806        6.1394904440        0.7508114409
 H         -1.2382066121        4.9475541066        1.7396382157
 H          0.9898474535        4.2313470688       -0.2979895768
