  62
        -98.93768917
 C         -2.1455841654       -1.1946954012        0.4602573646
 C         -2.3171949072       -0.3404895075       -0.6554778468
 C         -3.1385784783        0.8599008391       -0.4279602288
 C         -3.6270840789        1.0993455226        0.8024341991
 C         -4.5422579398        2.2316445820        1.1732401066
 C         -5.9781175658        1.9237811979        0.7021128132
 C         -6.5010395804        2.8646794135       -0.3834164254
 H         -7.4180983688        2.4258640366       -0.7819733493
 H         -6.7642344013        3.8213003889        0.0726885861
 C         -5.5396600806        3.1476725198       -1.5418674287
 H         -6.1301951505        3.5990171466       -2.3419467030
 H         -4.8064572393        3.8960068336       -1.2370062225
 C         -4.7929727879        1.9324742583       -2.1069829446
 H         -4.7388442478        2.0415157973       -3.1919876755
 H         -5.3452113270        1.0141237284       -1.9067814979
 C         -3.3462362388        1.7768455575       -1.6013830470
 H         -2.9290170972        2.7619231319       -1.3727542094
 H         -2.7385864085        1.3450683826       -2.4024686981
 H         -6.6582129986        1.9730569198        1.5537539049
 H         -6.0047554906        0.8948575496        0.3375001415
 H         -4.5112931813        2.3325460527        2.2584030384
 H         -4.1815637607        3.1560987014        0.7273783632
 O         -3.3975696552        0.2787191462        1.8612639879
 C         -2.6531371487       -0.8813851262        1.7198135919
 O         -2.5090351341       -1.5324764257        2.7753143256
 O         -1.8139572170       -0.5677855598       -1.7862140847
 C         -1.3278869886       -2.4679662129        0.3241261341
 C          0.0901926183       -2.1131319934       -0.0541860749
 C          0.7614764709       -2.6591034398       -1.1392278172
 C          2.0532688290       -2.2582920049       -1.4359033826
 C          2.7040719372       -1.3192703091       -0.6574750705
 C          2.0443795952       -0.7728619903        0.4361175275
 C          0.7514667057       -1.1748515490        0.7296963136
 H          0.2345245105       -0.7443547193        1.5797978865
 N          2.7040666040        0.1728807091        1.2451601356
 S          3.3175789760        1.5419266350        0.4848375788
 O          3.3755397100        2.5526097778        1.5192404548
 O          2.5612416362        1.8772900861       -0.6996306714
 C          4.9764954800        1.0697943533        0.0429579095
 C          5.8247246995        0.6541839802        1.0507725240
 C          7.1203273214        0.2862488559        0.7249050871
 C          7.5437972935        0.3419337348       -0.5948194679
 C          6.6809405861        0.7647922017       -1.5943393540
 C          5.3831501129        1.1336501908       -1.2753458807
 H          4.6744117996        1.4629013159       -2.0185579012
 H          7.0117256894        0.8079051867       -2.6195875754
 H          8.5525396490        0.0544047078       -0.8459390763
 H          7.7942239560       -0.0429528354        1.4993360354
 H          5.4561666857        0.6290282752        2.0626569697
 H          2.1671447408        0.4441508813        2.0569338008
 H          3.7079906305       -1.0028187899       -0.8885792522
 H          2.5603314934       -2.6840029704       -2.2882486232
 H          0.2698642769       -3.3884163798       -1.7613586707
 H         -1.3073438029       -2.9225415280        1.3254082375
 C         -1.9969304495       -3.4287519063       -0.6352333121
 C         -1.7690839468       -4.9035819431       -0.5019364816
 C         -3.0935633524       -4.3127938006       -0.1250406570
 H         -3.9442789335       -4.4992056443       -0.7631598955
 H         -3.3435690184       -4.2384282779        0.9236035274
 H         -1.7130622504       -5.5002831067       -1.3996598745
 H         -1.1202568958       -5.2387584753        0.2929235833
 H         -2.1121641811       -3.0130725819       -1.6292909074
