  62
        -98.94082301
 C         -1.9367560500       -1.2616698915        0.5156909701
 C         -1.9287549707        0.0546123386        1.0490919900
 C         -3.0824296211        0.9027411980        0.7242654000
 C         -4.0835432609        0.3893943374       -0.0129383100
 C         -5.3192565112        1.1347670068       -0.4254312700
 C         -5.1400952316        1.8039750569       -1.7947262601
 C         -3.8495082720        2.6133628675       -1.9195240301
 H         -2.9968145916        1.9312027379       -1.8791958400
 H         -3.8464178022        3.0705720675       -2.9114377101
 C         -3.6782141425        3.7040545776       -0.8527582301
 H         -4.6408137527        3.9256641071       -0.3907190101
 H         -3.3352555230        4.6186275078       -1.3412350201
 C         -2.6555097424        3.3698464382        0.2349183899
 H         -1.7264125322        3.0414733286       -0.2385402600
 H         -2.4371985029        4.2868911483        0.7885673299
 C         -3.0845381019        2.3082648280        1.2564199600
 H         -2.3599271919        2.3180408284        2.0759816800
 H         -4.0646653620        2.5660229375        1.6628108999
 H         -5.1325381512        1.0268079069       -2.5625661700
 H         -5.9986200919        2.4528810564       -1.9773358901
 H         -5.5529955016        1.8834078767        0.3291826799
 H         -6.1443339809        0.4227563764       -0.4848706500
 O         -4.0605154702       -0.8730592526       -0.5045519400
 C         -2.9779334298       -1.7184687220       -0.2927098800
 O         -3.0897255192       -2.8148413421       -0.8751354299
 O         -0.9975958010        0.4940121190        1.7739688100
 C         -0.7324345496       -2.1225913308        0.8556156001
 C          0.3492717503       -1.9738859103       -0.1880885699
 C          0.0782179804       -2.1719536105       -1.5375785699
 C          1.0713547004       -2.0052735800       -2.4859779599
 C          2.3550083502       -1.6504640494       -2.1086631399
 C          2.6384467801       -1.4616118592       -0.7632339299
 C          1.6375922901       -1.6210673697        0.1874276601
 H          1.8607090800       -1.4520343595        1.2322110601
 N          3.9527264499       -1.1085248185       -0.3854105299
 S          4.4671017091        0.4401956817       -0.7680848599
 O          4.1538176290        0.7034056316       -2.1483198899
 O          5.8622870991        0.4968147825       -0.3981530599
 C          3.5217827986        1.5045428913        0.3065689001
 C          2.1902233984        1.7302902706        0.0179472301
 C          1.4364692280        2.4908541902        0.8972094300
 C          2.0238232478        3.0103876706        2.0403787500
 C          3.3630965279        2.7780559013        2.3138015500
 C          4.1203902583        2.0111398016        1.4432951401
 H          5.1634832684        1.8002473121        1.6165096201
 H          3.8153776977        3.1849578015        3.2040526600
 H          1.4277509175        3.5952347703        2.7228496900
 H          0.3887727980        2.6525111597        0.7037418000
 H          1.7638472287        1.3108224704       -0.8799506899
 H          4.1492860500       -1.2852018884        0.5903611401
 H          3.1352888401       -1.5015323190       -2.8367723099
 H          0.8445843205       -2.1560599801       -3.5307701499
 H         -0.9206372794       -2.4534466110       -1.8358727799
 H         -0.3417000698       -1.7112528006        1.7966028601
 C         -1.0533630289       -3.5878487810        1.0730599001
 C         -0.1378429185       -4.4146003605        1.9232875401
 C         -1.5016939487       -4.0488092312        2.4258452101
 H         -2.2582869283       -4.8167361616        2.4816822901
 H         -1.5752451791       -3.3072586312        3.2080514801
 H          0.0470671020       -5.4376165404        1.6341145102
 H          0.7139551513       -3.9241186301        2.3695694902
 H         -1.5057970786       -4.0619038813        0.2123446201
