  62
        -98.93797037
 C         -1.7324443686       -1.3802132616        0.1396513374
 C         -1.9032069896       -0.3896238403       -0.8554035475
 C         -3.2481726951        0.2090442382       -0.9622139584
 C         -4.2180730263       -0.1889797469       -0.1222006097
 C         -5.6196353532        0.3453041057       -0.0221962168
 C         -5.7014537502        1.4520277773        1.0429817593
 C         -5.3731058800        2.8572791182        0.5396054816
 H         -6.1860972088        3.2085660905       -0.0993415422
 H         -5.3353704691        3.5142081706        1.4117329906
 C         -4.0561960770        2.9875431151       -0.2304437377
 H         -3.2751173945        2.4184707765        0.2776035971
 H         -3.7571648189        4.0374717985       -0.2054642633
 C         -4.1667284428        2.5377370702       -1.6950159733
 H         -3.7623397117        3.3184527548       -2.3427740758
 H         -5.2201708607        2.4363290145       -1.9556712962
 C         -3.4210587777        1.2401898514       -2.0444155558
 H         -3.9117215841        0.7672505834       -2.9014238714
 H         -2.4022086516        1.4825300727       -2.3621150571
 H         -5.0223572757        1.1844242164        1.8568482186
 H         -6.7126247362        1.4688788878        1.4545760815
 H         -6.2498874549       -0.4884262464        0.2942121806
 H         -5.9673623957        0.7015790395       -0.9873106880
 O         -4.0129095845       -1.1399875980        0.8287411680
 C         -2.7869751142       -1.7561937717        0.9789719805
 O         -2.7554813354       -2.6176094664        1.8803736058
 O         -0.9880373291        0.0099263669       -1.6260018247
 C         -0.4272951546       -2.1244482318        0.3753405978
 C          0.5566860256       -1.3227341964        1.1926637066
 C          1.1783058960       -1.8715326685        2.3080917957
 C          2.1181529609       -1.1478768030        3.0221631177
 C          2.4543805796        0.1398399740        2.6425878720
 C          1.8304886373        0.6983255621        1.5361334493
 C          0.8980432868       -0.0321373237        0.8156722705
 H          0.4367060122        0.4045752106       -0.0574309627
 N          2.1841617612        2.0064693372        1.1228526294
 S          3.7041474834        2.0874420144        0.4155833474
 O          4.6987431744        1.8580856083        1.4323468703
 O          3.7627295899        3.3630770395       -0.2613862819
 C          3.7048677389        0.7482575591       -0.7614149747
 C          4.1781675296       -0.4892976460       -0.3752717551
 C          4.0802750252       -1.5480886300       -1.2630176507
 C          3.5071336627       -1.3530477697       -2.5100974500
 C          3.0340037362       -0.1042190826       -2.8818397779
 C          3.1280139458        0.9577855025       -1.9977839200
 H          2.7709755752        1.9438513342       -2.2496042402
 H          2.5819949007        0.0427709287       -3.8496956735
 H          3.4263449296       -2.1789320440       -3.1996380188
 H          4.4442403375       -2.5212565426       -0.9753945845
 H          4.6135914701       -0.5986568577        0.6044384831
 H          1.5124502338        2.3929317131        0.4727997945
 H          3.1956538633        0.7140781779        3.1743143205
 H          2.5933993156       -1.5902543028        3.8843703323
 H          0.9158826298       -2.8718438691        2.6195940274
 H         -0.7005673557       -3.0144342226        0.9576688756
 C          0.2370096461       -2.5801107616       -0.9116042064
 C          1.0974478895       -3.8053537880       -0.8923195522
 C         -0.2377552776       -3.8374989305       -1.5722509920
 H         -0.2716832511       -3.8706027834       -2.6506410833
 H         -1.0424205147       -4.3784814282       -1.0949945524
 H          1.9848051908       -3.8186940500       -1.5046664571
 H          1.1994027964       -4.3320441043        0.0442097931
 H          0.5366424138       -1.7605615162       -1.5516405561
