  62
        -98.94129477
 C         -2.4965894545       -1.3477627742        0.0085681289
 C         -3.1747048121       -0.6263218376        1.0260047224
 C         -3.9849496306        0.5180964548        0.5922614583
 C         -4.0498286808        0.8148448486       -0.7179671768
 C         -4.7928825890        1.9816446722       -1.2995782960
 C         -3.8880991764        3.2167693855       -1.4108432607
 C         -3.1177609604        3.5382404214       -0.1297557758
 H         -2.3950051805        2.7413802735        0.0649006953
 H         -2.5412007635        4.4471091122       -0.3168470309
 C         -4.0016283764        3.7381223192        1.1095895863
 H         -3.6511365331        4.6209305566        1.6482174776
 H         -5.0301933776        3.9318620463        0.8030156291
 C         -3.9781288257        2.5734683666        2.1013547679
 H         -4.4483220555        2.9084466746        3.0296951143
 H         -2.9421037333        2.3131653567        2.3340678410
 C         -4.7066884680        1.3003627359        1.6528006463
 H         -4.7777603080        0.6357245843        2.5186512330
 H         -5.7180121144        1.5507219835        1.3262175131
 H         -4.5053175200        4.0727937454       -1.6897274962
 H         -3.1628071337        3.0459372928       -2.2101076728
 H         -5.6543556987        2.2048324727       -0.6732344551
 H         -5.1403599652        1.7062411440       -2.2967861194
 O         -3.3974631588        0.0987715801       -1.6665542538
 C         -2.5899181249       -0.9834784865       -1.3346796596
 O         -2.0368591846       -1.5073020903       -2.3207838469
 O         -3.1093377447       -0.9358102003        2.2456723056
 C         -1.6485104477       -2.5238075247        0.4641844391
 C         -0.2220290187       -2.0875657702        0.6809305259
 C          0.4186439711       -2.2926284707        1.8966291331
 C          1.7172156449       -1.8535152124        2.0909868529
 C          2.4010365469       -1.2025138038        1.0798977829
 C          1.7672846024       -0.9882875631       -0.1372913972
 C          0.4684127234       -1.4322337272       -0.3302474077
 H         -0.0206421187       -1.2606798236       -1.2785496785
 N          2.4534276252       -0.3165651468       -1.1708666220
 S          2.9293833361        1.2603827192       -0.8215383359
 O          2.0523693073        1.8699774705        0.1529675554
 O          3.0319640812        1.9266919069       -2.1014841100
 C          4.5609194783        1.0578453395       -0.1386800209
 C          4.8429872247        1.5276040772        1.1289622388
 C          6.1215540556        1.3562803371        1.6370257994
 C          7.0890708261        0.7224727757        0.8724029808
 C          6.7898326118        0.2587547257       -0.4002560663
 C          5.5142266589        0.4274037662       -0.9144844530
 H          5.2396510540        0.0855343942       -1.8984184954
 H          7.5448449855       -0.2334401732       -0.9917412416
 H          8.0823895661        0.5890133551        1.2708444584
 H          6.3560953190        1.7164482295        2.6258388582
 H          4.0559079480        2.0076989495        1.6882610990
 H          1.9446133635       -0.3282292622       -2.0446416572
 H          3.4111341099       -0.8557741495        1.2255462580
 H          2.2013667079       -2.0175210841        3.0414388057
 H         -0.1152953546       -2.7823207533        2.6977592144
 H         -2.0621885435       -2.7968795294        1.4478092081
 C         -1.7768752403       -3.7444575280       -0.4367757690
 C         -0.6623707621       -4.2792724368       -1.2806160917
 C         -1.0946020887       -5.0255602681       -0.0566281801
 H         -1.6317359928       -5.9541514597       -0.1749750393
 H         -0.4370670691       -4.9987807644        0.7992493194
 H         -0.9194720359       -4.6735741064       -2.2519503923
 H          0.2886158727       -3.7710996636       -1.2580820390
 H         -2.7743787463       -3.8308498935       -0.8558757543
