  62
        -98.93958687
 C          2.4595680311       -0.9908803150       -0.5445911169
 C          2.3900626980        0.3124319646        0.0082703391
 C          3.5584346426        1.1709805018       -0.2404691256
 C          4.5767031237        0.7247796493       -0.9960865077
 C          5.8223863081        1.4903263772       -1.3508611542
 C          6.9173169143        1.4316014349       -0.2768733848
 C          6.6363586712        2.2495959287        0.9842972479
 H          7.5687007856        2.2949296520        1.5506583487
 H          6.3764661809        3.2705916342        0.7031261642
 C          5.5393432443        1.6671719790        1.8864707778
 H          5.3666787801        0.6214157092        1.6213668904
 H          5.8766938117        1.6809253806        2.9253578967
 C          4.2090262520        2.4185359403        1.8318890999
 H          4.3439392682        3.4303470665        2.2205060385
 H          3.4967081574        1.9021827433        2.4807195862
 C          3.5930333188        2.5114528705        0.4295729713
 H          2.5617324030        2.8587170918        0.5291867114
 H          4.1469003736        3.2269056697       -0.1776704730
 H          7.0837993992        0.3868080655       -0.0041569446
 H          7.8379531880        1.8068481987       -0.7296771737
 H          6.2132491997        1.0404430121       -2.2660941999
 H          5.5676116202        2.5303845393       -1.5562406172
 O          4.5768256241       -0.5121200796       -1.5613549609
 C          3.5346635239       -1.3969614310       -1.3406545626
 O          3.6742200323       -2.4984509926       -1.9095738286
 H         -0.6723124905       -1.3331305402        1.3952448528
 C         -0.9140652019       -1.1050253252        0.3685779172
 C          0.0073269025       -1.3717602005       -0.6310068294
 C         -0.3187472851       -1.0390341807       -1.9426016139
 C         -1.5337971154       -0.4532507881       -2.2421787159
 C         -2.4485029384       -0.1822230983       -1.2397088611
 C         -2.1316757867       -0.5060672787        0.0720323940
 N         -3.0473223101       -0.2113049756        1.0959573777
 S         -4.6393262436       -0.7009301192        0.9172164144
 O         -5.1593532235       -0.8017137322        2.2637432200
 O         -4.7384311510       -1.8901268201        0.1022072695
 C         -5.4258935206        0.6684853333        0.0948743088
 C         -6.1407217314        0.4537329068       -1.0670830964
 C         -6.7573025374        1.5313160415       -1.6837799871
 C         -6.6493720152        2.7975685177       -1.1297246690
 C         -5.9297228042        2.9960334600        0.0392843398
 C         -5.3117780714        1.9229545552        0.6611230190
 H         -4.7451271864        2.0356936146        1.5703440484
 H         -5.8475182001        3.9823966896        0.4667420719
 H         -7.1290235740        3.6349346214       -1.6114868364
 H         -7.3173269015        1.3790456557       -2.5924459924
 H         -6.1922273733       -0.5473523091       -1.4646933071
 H         -2.7019365128       -0.4089338056        2.0235830492
 H         -3.3964496396        0.2789099000       -1.4646021096
 H         -1.7712176064       -0.2015262702       -3.2647558072
 H          0.3993758927       -1.2435819032       -2.7255049892
 C          1.3466882320       -2.0081168055       -0.3550059822
 H          1.5218664352       -2.7671592810       -1.1348952164
 C          1.3952830863       -2.7425576379        0.9771085849
 C          2.7098913875       -3.1052452292        1.5991429523
 C          1.8271703225       -2.0873102341        2.2530896108
 H          1.3193740400       -2.3632717103        3.1662807086
 H          2.1179142276       -1.0496905201        2.2132800312
 H          3.6057952025       -2.7637493080        1.1010624880
 H          2.8107656265       -4.0758031822        2.0610434454
 H          0.6058571132       -3.4849783638        1.0541943251
 O          1.4204986824        0.7521305930        0.6768245047
