  62
        -98.94322370
 C         -1.8856537268       -1.3700639858       -0.2026543462
 C         -2.1885273374       -0.2269607889       -0.9826259849
 C         -3.5820286908        0.2374343377       -0.9165315359
 C         -4.4811102527       -0.4255750444       -0.1684772760
 C         -5.9354533264       -0.0746094541       -0.0095242005
 C         -6.2027920628        1.0005243389        1.0528918436
 C         -5.7850598121        2.4195485115        0.6644791545
 H         -6.2129110301        2.6707378461       -0.3065407452
 H         -6.2262976786        3.0955833434        1.3995493099
 C         -4.2672143579        2.6488617538        0.6342601179
 H         -3.7650406904        1.8491316677        1.1839447629
 H         -4.0292507495        3.5846745451        1.1450566340
 C         -3.6668468096        2.7349595272       -0.7691865911
 H         -2.5842610883        2.8562588940       -0.6734281665
 H         -4.0592339780        3.6155513224       -1.2830582107
 C         -3.9289462133        1.5016373145       -1.6431870756
 H         -4.9692892372        1.4832200080       -1.9672454374
 H         -3.2871963325        1.5653649087       -2.5255745812
 H         -7.2772503364        1.0031316032        1.2499682655
 H         -5.6957307283        0.7122874705        1.9765752235
 H         -6.3416960555        0.2496150742       -0.9679167745
 H         -6.4455997614       -0.9916448459        0.2928012413
 O         -4.1580351236       -1.5393054958        0.5406886510
 C         -2.8593611695       -2.0179175467        0.5630460739
 O         -2.7000208327       -3.0228882201        1.2848824607
 O         -1.3610119811        0.3849225602       -1.7066718895
 C         -0.4777425131       -1.9419960701       -0.1094275894
 C          0.3330547827       -1.0572561827        0.8070851310
 C          0.4038657611       -1.3704191793        2.1621527394
 C          1.0869239953       -0.5524515014        3.0419412057
 C          1.7260585936        0.5865168712        2.5849105004
 C          1.6570274942        0.9125834921        1.2354921488
 C          0.9623902019        0.0937500778        0.3544506299
 H          0.8878611137        0.3887468881       -0.6793689916
 N          2.2851129876        2.0740316362        0.7527476892
 S          3.2809710831        1.9774749787       -0.5888506593
 O          4.0606834282        3.1958728934       -0.5448855624
 O          2.5097461553        1.7565632535       -1.7833064428
 C          4.3288816525        0.5741067871       -0.2538712027
 C          5.4679269839        0.7684909692        0.5032332281
 C          6.2527217260       -0.3259593356        0.8272980003
 C          5.8801373732       -1.5918062931        0.4005182298
 C          4.7331172044       -1.7700110683       -0.3571711731
 C          3.9469713281       -0.6781864315       -0.6905673225
 H          3.0508792345       -0.7782095347       -1.2801703441
 H          4.4427328076       -2.7540200334       -0.6890181019
 H          6.4881463795       -2.4449115092        0.6571166226
 H          7.1480764266       -0.1900345043        1.4121942930
 H          5.7238981797        1.7707106758        0.8068585425
 H          2.7282346627        2.6287224437        1.4713053137
 H          2.2627912181        1.2272410929        3.2681831218
 H          1.1286152737       -0.8062045398        4.0902506405
 H         -0.1048471636       -2.2544516332        2.5196874002
 H         -0.5902177843       -2.9175265478        0.3826797492
 C          0.1599689107       -2.1655089741       -1.4643344167
 C          1.2640819061       -3.1708480618       -1.5897314515
 C         -0.0874588587       -3.4660216376       -2.1660612114
 H         -0.2062360004       -3.4577488395       -3.2392235291
 H         -0.7107944949       -4.1922889624       -1.6644641699
 H          2.0735902471       -2.9646582155       -2.2735998600
 H          1.5592304788       -3.7013778055       -0.6969739824
 H          0.2095367654       -1.2759111815       -2.0787656853
