  62
        -98.94039118
 C         -1.1091610173       -1.4356080499        0.2117718798
 C         -1.3508712809       -0.4604554618       -0.7829306995
 C         -2.3442004620        0.5798416163       -0.4548563455
 C         -2.8773631994        0.6161896249        0.7777397706
 C         -3.9165963987        1.5653238995        1.3076452756
 C         -5.3254997109        0.9656730270        1.1614184457
 C         -6.0013858782        1.2346588879       -0.1825304303
 H         -6.9238138386        0.6497715896       -0.2056837247
 H         -6.2815953224        2.2886313831       -0.2391681180
 C         -5.1650605291        0.8835668514       -1.4157846521
 H         -4.6693249304       -0.0766616957       -1.2621210262
 H         -5.8476013213        0.7623237818       -2.2592550040
 C         -4.1256573796        1.9589006559       -1.7669554727
 H         -4.2319890882        2.2332212818       -2.8186028975
 H         -4.3361393589        2.8598857792       -1.1915508831
 C         -2.6613164717        1.5437577538       -1.5652627660
 H         -2.0481447867        2.4405731221       -1.4338329555
 H         -2.2963285644        1.0525750583       -2.4726050303
 H         -5.2505683848       -0.1121044991        1.3272358209
 H         -5.9638565054        1.3725343958        1.9483088474
 H         -3.7058243716        1.6950448079        2.3713798358
 H         -3.8512755657        2.5302437719        0.8140212918
 O         -2.5480361016       -0.2886735968        1.7394582489
 C         -1.6974106195       -1.3420178880        1.4776073544
 O         -1.5353244260       -2.1207462400        2.4380901716
 O         -0.7867618512       -0.4378789950       -1.9108034675
 C         -0.1921970823       -2.6343294095        0.0144198261
 C          1.2488779624       -2.2418891095        0.2289081044
 C          1.9936281812       -2.7862630942        1.2681295955
 C          3.3041703453       -2.3925023264        1.4803666531
 C          3.8940659452       -1.4406896076        0.6674337093
 C          3.1518571469       -0.8843956493       -0.3660300781
 C          1.8461624728       -1.2932957064       -0.5895736120
 H          1.2724012253       -0.8496984063       -1.3900141610
 N          3.7277902626        0.1355283381       -1.1613483026
 S          3.9076117889        1.6043281301       -0.3774160298
 O          4.3553528429        2.5406600825       -1.3823195392
 O          4.7794940234        1.4146952868        0.7535177999
 C          2.2761208537        2.0607107635        0.1878680106
 C          1.5784064480        3.0331220977       -0.4993057331
 C          0.3077787080        3.3780639820       -0.0690212134
 C         -0.2511989430        2.7302472477        1.0215561251
 C          0.4554943560        1.7435259250        1.6908538113
 C          1.7350405403        1.4084439063        1.2785463790
 H          2.3149019043        0.6599635900        1.7940199849
 H          0.0132662303        1.2285328376        2.5299988847
 H         -1.2421672441        2.9932849491        1.3559251471
 H         -0.2409821903        4.1506110233       -0.5839629169
 H          2.0488140545        3.5086964951       -1.3449822085
 H          3.2161496615        0.2908812758       -2.0200422198
 H          4.9022258144       -1.0990666298        0.8356244473
 H          3.8699886388       -2.8257027444        2.2912078164
 H          1.5325029885       -3.5100196830        1.9243421167
 H         -0.4648338122       -3.3472175453        0.8039781200
 C         -0.3792121933       -3.3139317290       -1.3282022046
 C          0.0405518687       -4.7433928643       -1.4823994332
 C         -1.4150958252       -4.3863440381       -1.4693310179
 H         -1.9718762637       -4.4464383511       -2.3924202889
 H         -1.9946303523       -4.6410692335       -0.5936437284
 H          0.4866245528       -5.0511213086       -2.4156187565
 H          0.4470669783       -5.2426254806       -0.6158103150
 H         -0.2329951530       -2.6523211942       -2.1714435714
