  62
        -98.94047284
 C         -1.8027917491       -0.1643122666        0.9250323781
 C         -3.1498293361       -0.0306720543        1.3484431363
 C         -4.1757723186       -0.4384323820        0.3827816074
 C         -3.8070458009       -0.8927597617       -0.8284945851
 C         -4.7328289321       -1.3647904418       -1.9165793606
 C         -5.3056307871       -0.2345719127       -2.7828391588
 C         -6.3659291857        0.6335531251       -2.1039244776
 H         -6.8344341310        1.2359579569       -2.8848046931
 H         -7.1401391856       -0.0057592633       -1.6784261000
 C         -5.8174035944        1.5722034140       -1.0200619055
 H         -4.7352906965        1.6687971773       -1.1362107601
 H         -6.2424389494        2.5697556591       -1.1526856634
 C         -6.1252325755        1.1354498318        0.4122808170
 H         -5.6583988762        1.8487274400        1.0965065377
 H         -7.2040535612        1.1653589049        0.5804956095
 C         -5.6138573170       -0.2664402482        0.7684137503
 H         -6.2305396267       -1.0251949868        0.2869044446
 H         -5.6855367878       -0.3917792908        1.8516982297
 H         -4.4816701957        0.3967880860       -3.1237445136
 H         -5.7561205047       -0.6964092629       -3.6644671029
 H         -4.1472007269       -2.0263610298       -2.5585513913
 H         -5.5502022640       -1.9389946513       -1.4792105132
 O         -2.5056641131       -0.9917728605       -1.2043512564
 C         -1.4715955870       -0.6138049628       -0.3541447001
 O         -0.3408598295       -0.7307916539       -0.8585586127
 O         -3.4772078192        0.4125681722        2.4813260010
 C         -0.7193744884        0.2639856787        1.8975634282
 C          0.2988874743        1.1397566719        1.2100012748
 C         -0.1484987131        2.2125525265        0.4420892337
 C          0.7408517657        3.0293357738       -0.2278207455
 C          2.1046846746        2.8129081465       -0.1282595035
 C          2.5631716094        1.7628396642        0.6524104505
 C          1.6655959490        0.9323987031        1.3137973884
 H          2.0469156326        0.1079132158        1.8959221472
 N          3.9557839852        1.5585668996        0.7724576220
 S          4.7757179801        0.9888326877       -0.5727932326
 O          6.1779468728        1.0275777344       -0.2230717537
 O          4.3792344642        1.7607736030       -1.7215196756
 C          4.2555988820       -0.7099305174       -0.7366578162
 C          5.1194688718       -1.7163522425       -0.3489968247
 C          4.6903215305       -3.0316116095       -0.4166719776
 C          3.4063126666       -3.3167029528       -0.8577285605
 C          2.5514149940       -2.2946737199       -1.2393988041
 C          2.9760668886       -0.9768250164       -1.1798359853
 H          2.3154460101       -0.1728954017       -1.4614609034
 H          1.5445910763       -2.4971031356       -1.5683525447
 H          3.0680269667       -4.3401386225       -0.9027776993
 H          5.3535626952       -3.8289320688       -0.1216664009
 H          6.1068336588       -1.4473592763       -0.0095525252
 H          4.2078754484        0.9900441123        1.5695871078
 H          2.8138738705        3.4295463980       -0.6554853398
 H          0.3717393615        3.8455352851       -0.8308872427
 H         -1.2131265086        2.3888733904        0.3634245909
 H         -1.2525830036        0.8881565965        2.6349807825
 C         -0.0966615955       -0.8864056589        2.6772370556
 C         -0.7802790857       -2.2153610746        2.7905406254
 C          0.4784048371       -2.0876706526        1.9888972247
 H          1.3844779873       -2.5248276038        2.3830405227
 H          0.4095768083       -2.1198971631        0.9133626927
 H         -0.7400430106       -2.7303687348        3.7387353083
 H         -1.7125675067       -2.3491452879        2.2613422481
 H          0.4189529682       -0.5422141541        3.5687644910
