  62
        -98.93226259
 C         -1.4561569170        0.9410989688       -0.7080456039
 C         -2.6342592162        1.2240206293        0.0219851393
 C         -3.6817625288        0.1783973059        0.0116275442
 C         -3.4628722898       -0.9705950704       -0.6503305695
 C         -4.3633354939       -2.1725893623       -0.7860143807
 C         -5.8447275048       -1.8934811077       -1.0836750610
 C         -6.7707571965       -2.2048418104        0.0933879514
 H         -7.7739303830       -2.3982079208       -0.2932127862
 H         -6.4250188735       -3.1223913996        0.5740303432
 C         -6.8851089129       -1.0983298520        1.1405811374
 H         -7.4622859195       -0.2681687631        0.7273683925
 H         -7.4523966620       -1.4991922498        1.9839647774
 C         -5.5551504848       -0.5491160877        1.6607106948
 H         -4.8417017442       -1.3576998863        1.8146504007
 H         -5.7407498624       -0.0978416745        2.6377332767
 C         -4.9402401434        0.5305428900        0.7575365000
 H         -5.6861095473        0.8852923393        0.0402028899
 H         -4.6674827067        1.4017254831        1.3613651475
 H         -5.9712074284       -0.8599701807       -1.4025718607
 H         -6.1411459076       -2.5273748726       -1.9210809012
 H         -3.9278004034       -2.7619483149       -1.5960962382
 H         -4.2758061009       -2.7763883334        0.1206027303
 O         -2.2927458329       -1.2154439664       -1.3090440640
 C         -1.2786359957       -0.2800121182       -1.3611173922
 O         -0.2793469318       -0.6429438098       -2.0140152797
 H          2.3644681577        1.4070550521       -1.0414380450
 C          2.0318236835        1.4062790418       -0.0145068228
 C          0.7007530269        1.6497907089        0.2870441232
 C          0.2993016086        1.6318277492        1.6198928593
 C          1.2171821500        1.3809480808        2.6225328394
 C          2.5430715417        1.1245696443        2.3169222775
 C          2.9522462781        1.1333599351        0.9892196561
 N          4.2927108748        0.8831230586        0.6474840352
 S          4.6431015433       -0.2339303503       -0.5516077226
 O          6.0623530298       -0.4755652519       -0.4112445928
 O          4.2075588002        0.2640499183       -1.8299420952
 C          3.7355367466       -1.6930893671       -0.0753423181
 C          4.3529501086       -2.5791784714        0.7877368005
 C          3.6501827398       -3.6856149354        1.2337803692
 C          2.3407357224       -3.8823935130        0.8201197437
 C          1.7363047634       -2.9834119497       -0.0438862050
 C          2.4353499324       -1.8759301201       -0.4999454450
 H          1.9705476343       -1.1753022683       -1.1757664519
 H          0.7188073342       -3.1231574846       -0.3749537378
 H          1.7889794777       -4.7409676029        1.1694855700
 H          4.1210272882       -4.3882793234        1.9023044115
 H          5.3744688635       -2.3916636490        1.0770731246
 H          4.8972002720        0.7349632858        1.4434765019
 H          3.2571090325        0.9210120551        3.1003704977
 H          0.8963216317        1.3760701760        3.6532191099
 H         -0.7366203711        1.8226343260        1.8564271016
 C         -0.2871242831        1.9060875220       -0.8216674996
 H          0.2122838112        1.6446268798       -1.7691194137
 C         -0.7093657538        3.3648246183       -0.9271280615
 C         -0.4241813283        4.3905186542        0.1242506192
 C          0.3324398643        4.4174681701       -1.1674300679
 H          0.1233901111        5.2018095620       -1.8791477283
 H          1.3657433415        4.1024825605       -1.1492922809
 H         -1.1772286681        5.1428162819        0.3022521180
 H          0.1005985385        4.0816566992        1.0142274847
 H         -1.6449643471        3.4781247635       -1.4645523598
 O         -2.8271756905        2.2887428601        0.6622240365
