  62
        -98.93813741
 C         -1.9758582678       -1.3898367939        0.3120399108
 C         -2.6344565798       -0.7325653879       -0.7539049047
 C         -3.7916985608        0.1021751981       -0.3860126700
 C         -4.1553354809        0.1991295846        0.9041623447
 C         -5.3179010260        0.9571335391        1.4944331906
 C         -5.5723720934        2.3785740376        0.9722825755
 C         -4.3156975125        3.1495251963        0.5419640899
 H         -4.3191717307        4.1299203665        1.0222011957
 H         -3.4191879876        2.6262541542        0.8795472975
 C         -4.2381855896        3.3698909170       -0.9708814183
 H         -5.2272481783        3.6597853348       -1.3324248314
 H         -3.5604856169        4.2038346284       -1.1696883145
 C         -3.7375940458        2.1775569888       -1.7857427437
 H         -2.6693496304        2.0262857828       -1.6054010716
 H         -3.8487293507        2.4244977545       -2.8442652487
 C         -4.4501560114        0.8425147228       -1.5139894316
 H         -5.5120226550        0.9917983012       -1.3341035919
 H         -4.3299438132        0.2130621180       -2.3998328642
 H         -6.2668251922        2.3400516426        0.1342214348
 H         -6.0761816307        2.9232381267        1.7725434685
 H         -6.2218185954        0.3576181266        1.3538589061
 H         -5.1185876165        0.9918510392        2.5681901725
 O         -3.4836045351       -0.4454919316        1.9006300471
 C         -2.3786668806       -1.2371154005        1.6366228938
 O         -1.8459535230       -1.7341064918        2.6506148112
 H          0.0960317815        0.1280033575        0.8066876781
 C          0.6310076935       -0.2031273635       -0.0756492302
 C          0.3132564842       -1.4358898495       -0.6338144309
 C          1.0191606326       -1.8558021132       -1.7528918515
 C          1.9898581059       -1.0438224905       -2.3153279750
 C          2.2849322084        0.1924101719       -1.7723477150
 C          1.5998467834        0.6124648797       -0.6385209326
 N          1.9049335662        1.8585508547       -0.0652430743
 S          3.5187744100        2.2664813027        0.1075984112
 O          3.5617139983        3.1726053829        1.2338599571
 O          4.0230419940        2.7888832035       -1.1378201686
 C          4.3497522597        0.7373042471        0.5007051578
 C          3.9569744367        0.0582342551        1.6371391314
 C          4.5673946839       -1.1471277278        1.9424299584
 C          5.5556236487       -1.6504874632        1.1100152222
 C          5.9428283720       -0.9540012895       -0.0239977329
 C          5.3340144317        0.2513099822       -0.3354025678
 H          5.6018343310        0.8240362266       -1.2082284565
 H          6.7130448449       -1.3468206058       -0.6677844801
 H          6.0259244113       -2.5911007773        1.3492031191
 H          4.2663327117       -1.6894505319        2.8244664575
 H          3.1882674042        0.4771893576        2.2670942168
 H          1.3813652876        2.0660934170        0.7719153408
 H          3.0231382418        0.8439408760       -2.2109384783
 H          2.5206053202       -1.3769097844       -3.1938781562
 H          0.8016759715       -2.8143298833       -2.1938256693
 C         -0.7637658200       -2.2592606895        0.0312173493
 H         -0.3875309141       -2.5815353028        1.0132993246
 C         -1.1686620459       -3.4846692142       -0.7609809562
 C         -0.3995477548       -4.7629199647       -0.6206408804
 C         -1.7729487130       -4.6463166921       -0.0329129232
 H         -2.5846542777       -5.1827656515       -0.5009117497
 H         -1.8680104802       -4.5630648704        1.0402495965
 H          0.4410109126       -4.7693845681        0.0564841477
 H         -0.2695468639       -5.3851919846       -1.4931443434
 H         -1.5796764725       -3.2346686449       -1.7321089048
 O         -2.2817334903       -0.8397557683       -1.9562657718
