  62
        -98.93785959
 C         -1.4572346894       -1.6343903360        0.2803521847
 C         -1.6508101814       -0.4585949052        1.0510771833
 C         -2.9140952907        0.2657432242        0.8505213857
 C         -3.8170447440       -0.2293809340       -0.0151794915
 C         -5.1353698093        0.4006698659       -0.3656185491
 C         -4.9250647693        1.5739176219       -1.3436846759
 C         -5.2859586109        2.9437205784       -0.7681381241
 H         -4.8996423197        3.6999176308       -1.4546644350
 H         -6.3731228935        3.0440266290       -0.7459594117
 C         -4.7594158408        3.2326485183        0.6410372819
 H         -5.3981825282        2.7456940498        1.3792663510
 H         -4.8594702810        4.3076009948        0.8049357680
 C         -3.3033428795        2.8260107696        0.9030625778
 H         -2.7539968450        2.7678263027       -0.0369013637
 H         -2.8345383262        3.6080572350        1.5042219108
 C         -3.1359187603        1.5037582584        1.6757859203
 H         -2.2504397262        1.5770400401        2.3149196555
 H         -3.9971899899        1.3538797971        2.3330340555
 H         -3.8804480501        1.5719880590       -1.6615468945
 H         -5.5252427342        1.4115357453       -2.2401459580
 H         -5.6309384770        0.7414098527        0.5409143741
 H         -5.7489444648       -0.3728352770       -0.8280044014
 O         -3.5962146594       -1.3545213968       -0.7389918003
 C         -2.4145725237       -2.0753411530       -0.6337469710
 O         -2.3682852166       -3.0588400281       -1.3972978354
 O         -0.8016089706       -0.0379067018        1.8829494560
 C         -0.1505731567       -2.3780336361        0.5000213773
 C          0.8863728774       -1.9597264387       -0.5150405664
 C          0.7038184631       -2.1828267021       -1.8761098066
 C          1.6693338405       -1.7857710739       -2.7825479593
 C          2.8224932353       -1.1499779493       -2.3552297275
 C          3.0142511168       -0.9223866793       -0.9976896253
 C          2.0499882195       -1.3372983013       -0.0886147999
 H          2.2159971800       -1.1632583534        0.9633387910
 N          4.1825439560       -0.2982314021       -0.5348021068
 S          4.1231371220        0.8504364163        0.6810681774
 O          5.4251474731        1.4794236640        0.6338148388
 O          3.7651995623        0.2299040594        1.9302191795
 C          2.8791527598        2.0145025005        0.1556177094
 C          3.2674076158        3.0089610079       -0.7229553805
 C          2.3200785657        3.9046120707       -1.1890736862
 C          1.0005948461        3.7879857319       -0.7769111436
 C          0.6284483903        2.7848746470        0.1030654004
 C          1.5718806595        1.8863482434        0.5771584494
 H          1.2871866688        1.1048885489        1.2636615058
 H         -0.3931992479        2.6814185143        0.4322161082
 H          0.2597719004        4.4832823629       -1.1394639094
 H          2.6101629957        4.6884276088       -1.8701613898
 H          4.3054560705        3.0723607171       -1.0070205690
 H          4.8210315982       -0.0143391029       -1.2636796755
 H          3.5719452733       -0.8371686199       -3.0662201410
 H          1.5196819707       -1.9668196510       -3.8362516574
 H         -0.2022786200       -2.6629333274       -2.2129019203
 H          0.2057837344       -2.0491909582        1.4862932431
 C         -0.2950975933       -3.8865745217        0.5293364046
 C          0.7654691441       -4.6984470450        1.2079996570
 C         -0.5928000646       -4.5696327538        1.8285607535
 H         -1.2494426655       -5.4265818793        1.8206919988
 H         -0.6942094411       -3.9507193884        2.7084865229
 H          1.0449891947       -5.6461602288        0.7741877406
 H          1.5855842948       -4.1666216171        1.6674461698
 H         -0.7504155701       -4.2964639775       -0.3622343418
