  62
        -98.93907868
 C          0.8102005735        1.3966855094        0.6488679894
 C          1.1539345598        0.6765415419       -0.5183622057
 C          2.1752439797       -0.3832466388       -0.3673995410
 C          2.6004048003       -0.7059648821        0.8670628163
 C          3.6454654552       -1.7130169263        1.2723841330
 C          5.0756247759       -1.2185581982        1.0103780748
 C          5.2935058159       -0.6085312328       -0.3712563315
 H          4.6369677337        0.2552589125       -0.4880592439
 H          6.3221264631       -0.2406398827       -0.4118295881
 C          5.0910245554       -1.5657444489       -1.5441590536
 H          5.7427846065       -2.4325037047       -1.4154525823
 H          5.4141288524       -1.0402508352       -2.4462641183
 C          3.6576863200       -2.0562104982       -1.7720732341
 H          3.6138469650       -2.4678412843       -2.7842101033
 H          3.4060883538       -2.8681336033       -1.0954623296
 C          2.5976560321       -0.9627917551       -1.6949856150
 H          2.9119661842       -0.1155273737       -2.3154296894
 H          1.6727282075       -1.3263202630       -2.1563041927
 H          5.7600404840       -2.0566423787        1.1539326281
 H          5.3154952158       -0.4565890864        1.7564209819
 H          3.5243710778       -1.8732295128        2.3464101693
 H          3.4769404188       -2.6619688174        0.7723201767
 O          2.1136978663       -0.0876350605        1.9838044936
 C          1.2508380410        0.9870177063        1.9082745606
 O          0.9414711013        1.4773386379        3.0140073698
 H         -1.9328429402        0.7360656886        1.0561796285
 C         -2.1577375249        1.2780976922        0.1484809788
 C         -1.3153697487        2.3061161831       -0.2576069698
 C         -1.6267238684        3.0059863309       -1.4157198972
 C         -2.7507208766        2.6729664291       -2.1504284014
 C         -3.5835224379        1.6454741066       -1.7481974818
 C         -3.2836569196        0.9436002177       -0.5854605308
 N         -4.1285212274       -0.0809351556       -0.1382054545
 S         -3.5897216294       -1.3247817628        0.8211248988
 O         -4.6410200963       -2.3164609951        0.7266618624
 O         -3.2988318099       -0.8491329265        2.1509830372
 C         -2.1183820046       -1.9885010658        0.0632815461
 C         -1.0031050204       -2.2190984440        0.8409309017
 C          0.0924465237       -2.8503155298        0.2746592382
 C          0.0584302540       -3.2273746657       -1.0583279374
 C         -1.0616042998       -2.9692716245       -1.8333030320
 C         -2.1644727668       -2.3515575672       -1.2680723040
 H         -3.0574151048       -2.1603471329       -1.8403148294
 H         -1.0807091989       -3.2547804325       -2.8728195603
 H          0.9079729780       -3.7293466635       -1.4936282005
 H          0.9622386425       -3.0465339873        0.8804329037
 H         -1.0112310378       -1.9044385472        1.8735521676
 H         -4.8570551582       -0.3616210561       -0.7764415163
 H         -4.4594368021        1.3867344288       -2.3229482358
 H         -2.9786827958        3.2181545040       -3.0536934910
 H         -0.9767370740        3.7946815627       -1.7564717866
 C         -0.1143199201        2.6000632757        0.6055860816
 H         -0.4731034903        2.7197597875        1.6418958255
 C          0.5880464921        3.8990060500        0.2357163078
 C          2.0260262284        4.1248750360        0.5936348146
 C          1.6262017986        3.9732460724       -0.8416954696
 H          1.6473382027        4.8497783495       -1.4726105451
 H          1.8801177817        3.0594187900       -1.3546133337
 H          2.5557915861        3.3120074070        1.0693797915
 H          2.3186924938        5.1015020595        0.9489914876
 H         -0.0706082447        4.7559701018        0.3391379214
 O          0.6643195398        0.9057703738       -1.6534370877
