  62
        -98.93825342
 C         -0.5545233686       -1.9104652101       -0.0206847112
 C         -1.3425739320       -1.2361303859        0.9430788361
 C         -2.5146354804       -0.4860818345        0.4561290235
 C         -2.7682864426       -0.4666760306       -0.8643950649
 C         -3.8846744998        0.2295069871       -1.6008704874
 C         -4.1938999826        1.6723698608       -1.1721774769
 C         -5.5277502598        1.8166147140       -0.4365685369
 H         -5.8768448115        2.8455412992       -0.5480749687
 H         -6.2615752428        1.1695670581       -0.9216648183
 C         -5.4849513437        1.5018582555        1.0577759791
 H         -4.9528492419        2.3005639716        1.5788488722
 H         -6.5141547546        1.5031082524        1.4241944503
 C         -4.8341470782        0.1673730811        1.4266772539
 H         -5.1328960308       -0.6102544046        0.7246375174
 H         -5.2113185672       -0.1272244063        2.4082324664
 C         -3.3024710832        0.2354867720        1.5156191307
 H         -2.9776147364        1.2800058237        1.5443931274
 H         -2.9705144923       -0.2130755337        2.4573313804
 H         -3.3770684951        2.0617081340       -0.5655124800
 H         -4.2379982485        2.2837201436       -2.0753208978
 H         -3.5821969796        0.2125145628       -2.6506891532
 H         -4.7872724876       -0.3825862615       -1.5255932087
 O         -1.9985017598       -1.1488092181       -1.7576456595
 C         -0.8710102518       -1.8627165341       -1.3792497541
 O         -0.2737624732       -2.3931572419       -2.3354320754
 O         -1.0756241878       -1.2566227290        2.1756573915
 C          0.6795513909       -2.6257411312        0.4916293688
 C          1.9131826034       -1.7506695717        0.4300008157
 C          2.9618824719       -1.9555769938        1.3217481029
 C          4.0910418807       -1.1594279906        1.2785880028
 C          4.1864958248       -0.1212558488        0.3681208016
 C          3.1444710629        0.0949185083       -0.5240758800
 C          2.0294312070       -0.7316025332       -0.5015757409
 H          1.2468467661       -0.5592518567       -1.2235588478
 N          3.1815919700        1.1585398997       -1.4451799358
 S          1.8532793671        2.1801424524       -1.5007363204
 O          0.7453681803        1.5416475911       -2.1632312357
 O          2.3548207446        3.3884576171       -2.1201708986
 C          1.4755351035        2.4797930746        0.2150275373
 C          2.2408342968        3.3965821059        0.9100179623
 C          2.0210724779        3.5592733247        2.2679213294
 C          1.0603933151        2.7911551241        2.9095241439
 C          0.2999770800        1.8758763929        2.1986451431
 C          0.5046775354        1.7224830365        0.8366351692
 H         -0.0748198202        1.0214328962        0.2561395157
 H         -0.4353838432        1.2567681872        2.6888153736
 H          0.9005114049        2.9047232770        3.9700575189
 H          2.6047801713        4.2750151598        2.8240055486
 H          2.9782860215        3.9712523703        0.3733252634
 H          4.0341860637        1.7001987194       -1.4133107445
 H          5.0568808345        0.5163408631        0.3469614958
 H          4.8978682707       -1.3338068923        1.9734340512
 H          2.8840844317       -2.7417677273        2.0564916363
 H          0.4776997732       -2.8282963716        1.5534004566
 C          0.9489991417       -3.9469523312       -0.2039887264
 C          1.5440565605       -5.0908032471        0.5588806542
 C          0.1079630891       -5.1402292947        0.1338594668
 H         -0.1801390595       -5.8068412150       -0.6647461559
 H         -0.6524721150       -5.0137979794        0.8908645722
 H          2.2522200905       -5.7296008395        0.0541674341
 H          1.7481823459       -4.9489462103        1.6089737927
 H          1.2384925628       -3.8269945698       -1.2404950693
