  62
        -98.94213489
 C         -0.5157179706       -1.8959697072        0.5120049501
 C         -1.4486385789       -1.7351332555       -0.5415099111
 C         -2.6657854915       -0.9784232008       -0.2130944695
 C         -2.8399672953       -0.5196207167        1.0391035058
 C         -3.9591424131        0.3737329453        1.4920881009
 C         -3.6670716975        1.8266446922        1.0622073001
 C         -4.6494984158        2.3909777554        0.0355933226
 H         -4.2187965673        3.3207824718       -0.3426426401
 H         -5.5882995282        2.6383427207        0.5368720578
 C         -4.9750358395        1.4757294411       -1.1488336296
 H         -5.4417967521        2.0995273672       -1.9142497179
 H         -5.7225141263        0.7393353275       -0.8483029149
 C         -3.7822775368        0.7391687844       -1.7732330786
 H         -2.8501893452        1.2685548993       -1.5664127779
 H         -3.9118371314        0.7369062412       -2.8578069412
 C         -3.6400240847       -0.7299664030       -1.3293411075
 H         -3.2595000087       -1.3156672775       -2.1714627722
 H         -4.6215232040       -1.1318581114       -1.0624523587
 H         -2.6549019772        1.8748843284        0.6523742241
 H         -3.6803118988        2.4764390835        1.9393377489
 H         -4.9012736386        0.0309513197        1.0702284626
 H         -4.0154609521        0.3038853225        2.5789252462
 O         -1.9515489778       -0.7509942099        2.0404531744
 C         -0.7548835990       -1.4102608246        1.7951952233
 O         -0.0037534507       -1.4973626534        2.7880214828
 H          0.5293960800        0.0927063817       -0.3288632263
 C          1.2994511401       -0.3496482588       -0.9394095048
 C          1.5799839781       -1.7018326701       -0.8111991723
 C          2.5576570323       -2.2512795087       -1.6329693850
 C          3.2146828258       -1.4624366696       -2.5614576059
 C          2.9216949592       -0.1163662702       -2.6911826271
 C          1.9455828673        0.4423126268       -1.8742217250
 N          1.5889914826        1.7916142533       -1.9824311847
 S          0.8991276064        2.6197956815       -0.7129101435
 O         -0.4614105185        2.1939053958       -0.4982708912
 O          1.0707797197        4.0119591335       -1.0712533517
 C          1.9131722159        2.2361272986        0.7028876839
 C          3.2527875824        2.5691484293        0.6469432680
 C          4.0697496477        2.2455091061        1.7173184069
 C          3.5385194773        1.5898459021        2.8182696010
 C          2.1908252447        1.2699458017        2.8641443419
 C          1.3688660272        1.5997197473        1.7984514864
 H          0.3174598027        1.3555206001        1.8049715291
 H          1.7688066544        0.7461969419        3.7072709044
 H          4.1763925001        1.3263457056        3.6471132061
 H          5.1175561431        2.4975122482        1.6885446935
 H          3.6307525876        3.0810401383       -0.2229279862
 H          2.1769529931        2.3657628014       -2.5659475915
 H          3.4287044076        0.4924068152       -3.4235790387
 H          3.9676630225       -1.9032016672       -3.1968796340
 H          2.7970029573       -3.2991280054       -1.5513962248
 C          0.8412995111       -2.5108982575        0.2321703877
 H          1.4065859473       -2.4435754582        1.1743946801
 C          0.7065182214       -3.9721283236       -0.1493234504
 C          1.7402990625       -4.9699902528        0.2764235128
 C          0.3888215416       -4.9695099471        0.9229583870
 H         -0.2973137612       -5.7713347074        0.6954325556
 H          0.3039646371       -4.5961933016        1.9334625720
 H          2.5753458148       -4.6113156278        0.8592569628
 H          1.9830663655       -5.7785568612       -0.3966101836
 H          0.2299059095       -4.1053806223       -1.1134734433
 O         -1.2657527483       -2.1838560639       -1.7036698275
