  62
        -98.93555742
 C         -2.2759715455       -1.1192494963       -0.5769658314
 C         -3.4163914186       -0.7743269205        0.1918949267
 C         -4.0417079048        0.5311482808       -0.0773567717
 C         -3.4996471635        1.3391477200       -1.0072141286
 C         -3.9204000477        2.7015382844       -1.5177570945
 C         -4.9760488829        3.5192361476       -0.7787432332
 C         -4.5360497907        4.0424256121        0.5885584329
 H         -3.7801493147        4.8170992064        0.4364129207
 H         -5.3978672350        4.5087023227        1.0707636117
 C         -3.9404831850        3.0025522369        1.5346843416
 H         -3.6520289444        3.5154943001        2.4564330398
 H         -3.0260697789        2.5903929733        1.1015038330
 C         -4.8727140788        1.8542431120        1.9155221735
 H         -4.3769496402        1.2754147154        2.6996762566
 H         -5.7992723506        2.2555595950        2.3306306541
 C         -5.2257826421        0.8832668713        0.7764933682
 H         -5.5677183001       -0.0533064765        1.2264224795
 H         -6.0385954202        1.2691552257        0.1662617809
 H         -5.8984242372        2.9525179569       -0.6932567354
 H         -5.1944462528        4.3865374195       -1.4076107496
 H         -2.9991021832        3.2885391136       -1.5913374242
 H         -4.2642563963        2.5387819801       -2.5451938793
 O         -2.3986100305        0.9668523602       -1.7212350717
 C         -1.7555950088       -0.2445431859       -1.5285901417
 O         -0.7638587874       -0.3989769959       -2.2698551736
 H          0.7904764787       -1.4522317210       -0.9990338223
 C          0.7565062160       -1.7034323766        0.0505588380
 C         -0.4059580069       -2.2421741776        0.5836033359
 C         -0.4451542937       -2.5179674411        1.9457421843
 C          0.6515384184       -2.2600708256        2.7495369110
 C          1.8072104560       -1.7186872013        2.2148832742
 C          1.8511317964       -1.4302349393        0.8572563909
 N          3.0198447107       -0.8596029491        0.2957202565
 S          3.4023362348        0.6816368030        0.8810013976
 O          3.7680950349        0.5626478926        2.2696490112
 O          2.3343881564        1.6145077541        0.5857694034
 C          4.8447183455        1.0580433264       -0.0943452677
 C          4.7043428381        1.7953012625       -1.2541778697
 C          5.8283022666        2.0557723753       -2.0225038543
 C          7.0650089169        1.5732234763       -1.6216088718
 C          7.1891810294        0.8327801980       -0.4553604020
 C          6.0697822628        0.5699876194        0.3178917393
 H          6.1176560851        0.0065698279        1.2347914552
 H          8.1527938278        0.4606722878       -0.1470479635
 H          7.9373847065        1.7778574496       -2.2219290341
 H          5.7339924907        2.6323500689       -2.9287127747
 H          3.7241484641        2.1562413686       -1.5239563073
 H          2.9203485825       -0.7852982871       -0.7101168514
 H          2.6591777559       -1.4911600126        2.8340041569
 H          0.6053274054       -2.4785548082        3.8058599884
 H         -1.3531622055       -2.9166714984        2.3751117855
 C         -1.6248334938       -2.4612030986       -0.2803692731
 H         -2.3636840247       -3.0116738063        0.3171051689
 C         -1.3142460143       -3.2683733543       -1.5242243802
 C         -1.0726235981       -4.7410830569       -1.3896172170
 C         -2.3298615567       -4.2437110693       -2.0357248056
 H         -2.4425624319       -4.3554557915       -3.1036511553
 H         -3.2562933654       -4.3342399802       -1.4876621318
 H         -1.1460535862       -5.1694087839       -0.4014617189
 H         -0.3196464391       -5.1982862149       -2.0127786221
 H         -0.7364959963       -2.7267415163       -2.2614797108
 O         -3.9056702995       -1.5383382239        1.0663531058
