  62
        -98.94022689
 C         -1.6001294207       -1.4369104652        0.3829314564
 C         -1.5567515648       -0.3837115921       -0.5592660918
 C         -2.4827051671        0.7429279663       -0.3301936164
 C         -3.2908435263        0.7330117164        0.7460631091
 C         -4.2863523092        1.7543404909        1.2551906262
 C         -4.7829669906        2.8819207871        0.3536545427
 C         -5.6331769554        2.4269727382       -0.8321956621
 H         -6.5869501354        2.0516390609       -0.4527430370
 H         -5.8442548168        3.2989000116       -1.4552505933
 C         -5.0221202212        1.3310334799       -1.7020853815
 H         -4.9052393491        0.4183439429       -1.1140366382
 H         -5.7313087545        1.1069560559       -2.5036326717
 C         -3.6839862946        1.6793091056       -2.3512706442
 H         -3.4456729971        0.8820590387       -3.0606471501
 H         -3.7797460251        2.6091964240       -2.9153217991
 C         -2.4931439091        1.8120969236       -1.3857202364
 H         -1.5747029867        1.6849868244       -1.9665656094
 H         -2.4620966772        2.8025519923       -0.9376663016
 H         -3.9501172459        3.4900977544        0.0130787392
 H         -5.4082029641        3.5255966957        0.9783927280
 H         -5.1459195832        1.1773488085        1.6105134870
 H         -3.8271754458        2.1999422022        2.1445285582
 O         -3.2758145186       -0.2950951837        1.6436159871
 C         -2.4519908333       -1.3924233990        1.4889717346
 O         -2.5680433199       -2.2507591458        2.3851688428
 H          1.2138749299       -1.8114881956       -1.4970611157
 C          1.5494780387       -1.7677577141       -0.4736370633
 C          0.7163573412       -2.1999352886        0.5458042767
 C          1.1669198239       -2.1068298415        1.8596229321
 C          2.4203560206       -1.5958035575        2.1423927933
 C          3.2382882848       -1.1367207758        1.1240405407
 C          2.7881079750       -1.2109566608       -0.1870441330
 N          3.5752955693       -0.6730736230       -1.2219150543
 S          4.1849902885        0.8638863234       -0.9553864944
 O          4.2355000964        1.4927077956       -2.2574216732
 O          5.4510304191        0.7588537636       -0.2707551673
 C          3.0166714655        1.7050626576        0.1059099174
 C          3.4972768059        2.3658823378        1.2189626466
 C          2.6062512348        3.0250004267        2.0500143201
 C          1.2509918311        3.0049379033        1.7601375581
 C          0.7838284173        2.3371652769        0.6391574203
 C          1.6706935172        1.6849879943       -0.2025531702
 H          1.3092821121        1.1552915333       -1.0701838011
 H         -0.2710576094        2.3046461343        0.4161010678
 H          0.5528404341        3.5086638639        2.4100350383
 H          2.9690822883        3.5451476030        2.9218522607
 H          4.5571852183        2.3427376807        1.4142975991
 H          3.1273036561       -0.7221240388       -2.1261991066
 H          4.2091254999       -0.7126564806        1.3250357276
 H          2.7594978197       -1.5391797289        3.1653998338
 H          0.5125829991       -2.4258872539        2.6588116239
 C         -0.6953102352       -2.6554829600        0.2712411666
 H         -1.0013996062       -3.3315091616        1.0799424343
 C         -0.8631891769       -3.3723052210       -1.0522001730
 C         -0.3050970834       -4.7537985766       -1.2100695120
 C         -1.7875459376       -4.5479684545       -1.1354940420
 H         -2.3731343222       -4.6800614522       -2.0330805456
 H         -2.3009666125       -4.8461550421       -0.2329475644
 H          0.1289668854       -5.0310798135       -2.1585645962
 H          0.1897082586       -5.1908369864       -0.3559012800
 H         -0.8313884454       -2.7130047659       -1.9102650250
 O         -0.7863025715       -0.3610928667       -1.5554045471
