  62
        -98.94797271
 C         -2.3466652068       -0.2606099308        0.1448249002
 C         -1.7713665406        0.3614006126       -0.9895027582
 C         -1.7016719504        1.8269220347       -0.9488874110
 C         -2.0645650247        2.4802076008        0.1693763157
 C         -2.0393423693        3.9705978449        0.3734767494
 C         -0.6557777479        4.5194649562        0.7485105229
 C          0.3462586158        4.6010303388       -0.4038204778
 H         -0.1167060647        5.1066150716       -1.2525598141
 H          1.1740229745        5.2257021715       -0.0619173049
 C          0.9096538374        3.2448515577       -0.8510211735
 H          1.9913992247        3.3286059007       -0.9867495438
 H          0.7506510176        2.5045037529       -0.0632519160
 C          0.3299258357        2.7179478948       -2.1629698722
 H          0.6002653847        3.3933693115       -2.9782747188
 H          0.7833185338        1.7459105185       -2.3658695139
 C         -1.1941425021        2.5461692010       -2.1640766813
 H         -1.6784738192        3.5196049593       -2.2455100576
 H         -1.4666519239        1.9464816255       -3.0364563906
 H         -0.2377799686        3.8986334723        1.5453484520
 H         -0.8011600317        5.5257505978        1.1491658852
 H         -2.4007756221        4.4725361075       -0.5248979959
 H         -2.7296145955        4.1833762537        1.1928326423
 O         -2.5289636480        1.8385074477        1.2745125766
 C         -2.6755250361        0.4634009860        1.2903093559
 O         -3.1101899028        0.0041049807        2.3694394812
 H         -0.6123036918       -1.2197417240        1.9638873577
 C         -0.2330299671       -1.8958118678        1.2073657758
 C         -1.0911722630       -2.3505644693        0.2124662559
 C         -0.5902859875       -3.2218517619       -0.7449034926
 C          0.7450361490       -3.5913310080       -0.7275493208
 C          1.6101708139       -3.0778575087        0.2222040971
 C          1.1093947684       -2.2255970206        1.1972598001
 N          2.0192844858       -1.6034298613        2.1071413138
 S          2.2987364496       -0.0083469564        1.6155094801
 O          3.2672467927        0.5283630907        2.5479414750
 O          1.0643584381        0.7414969909        1.5102276907
 C          3.0358759663       -0.2430863914        0.0173754597
 C          2.2208351715       -0.3450254612       -1.0925542576
 C          2.8029684228       -0.5869315998       -2.3269893003
 C          4.1787838262       -0.7237168762       -2.4288837922
 C          4.9826885442       -0.6197286496       -1.3033643051
 C          4.4076058295       -0.3813337574       -0.0655895247
 H          4.9880355320       -0.2927894793        0.8380411180
 H          6.0521918969       -0.7272289952       -1.3861008248
 H          4.6252304515       -0.9133753150       -3.3922437817
 H          2.1707603590       -0.6723316154       -3.1965479289
 H          1.1523198649       -0.2384309539       -0.9829154183
 H          1.6619445530       -1.5743688783        3.0537360254
 H          2.6608397127       -3.3176908423        0.2170815735
 H          1.1216746120       -4.2635179514       -1.4826572075
 H         -1.2413436765       -3.5936374348       -1.5188207438
 C         -2.4859861238       -1.7756022314        0.2050170435
 H         -2.9573770830       -1.9984409202        1.1730350698
 C         -3.3669867640       -2.2970370130       -0.9079741340
 C         -4.0418099109       -3.6269456064       -0.7613104998
 C         -4.8476561334       -2.3655877109       -0.6914434324
 H         -5.5005039578       -2.1218233466       -1.5159034089
 H         -5.2251433698       -2.0499051178        0.2706200931
 H         -4.1459253339       -4.2521124920       -1.6348822631
 H         -3.8760152722       -4.1726941631        0.1552782608
 H         -3.0198439042       -2.0028129813       -1.8908458534
 O         -1.3478216788       -0.2681950762       -1.9936402549
