  62
        -98.94603007
 C         -1.5116126917       -1.2909781292        0.4828821989
 C         -1.4946696111       -0.2222578193       -0.4467056812
 C         -2.2783211106        0.9599878111       -0.0644147914
 C         -2.8786936407        1.0059550915        1.1384521186
 C         -3.6862830403        2.1535436019        1.6816012684
 C         -5.1548165602        2.1456421825        1.2352943783
 C         -5.3906060600        2.5217259024       -0.2280743017
 H         -6.4635045099        2.6856912229       -0.3469653418
 H         -4.8916987695        3.4670557622       -0.4437272117
 C         -4.9393737403        1.4560689922       -1.2367424016
 H         -4.8096324508        0.5005289122       -0.7232646815
 H         -5.7206606503        1.3116888825       -1.9864343017
 C         -3.6503907901        1.7957347416       -1.9852500815
 H         -3.8115598297        2.6791868516       -2.6067900816
 H         -3.4086477504        0.9588382214       -2.6450783314
 C         -2.4378042801        2.0505776511       -1.0795577515
 H         -1.5404725300        2.0504304307       -1.7014602014
 H         -2.5334821197        3.0193835312       -0.5898844615
 H         -5.5735371307        1.1554018027        1.4298208484
 H         -5.6905444600        2.8611817027        1.8634666482
 H         -3.6572536504        2.0677880919        2.7701182685
 H         -3.2234886798        3.0982333216        1.3951346584
 O         -2.7987096212       -0.0121141085        2.0379484387
 C         -2.1459672617       -1.1934361088        1.7200789288
 O         -2.1849415922       -2.0604831787        2.6181918589
 H          0.8231674283       -1.1199408001        1.6517124090
 C          1.3528257282       -1.5175353604        0.7940335891
 C          0.6657707279       -2.3174904902       -0.1111341209
 C          1.3580104578       -2.8259439606       -1.2017337908
 C          2.6977027979       -2.5267689812       -1.3835639507
 C          3.3751483382       -1.7233853114       -0.4855036507
 C          2.6931065484       -1.2162586410        0.6135172692
 N          3.3705461686       -0.3967616612        1.5382922792
 S          4.1774011793        0.9393398684        0.9303292592
 O          5.3911087791        0.5062772978        0.2851557393
 O          4.3408052696        1.8273209584        2.0595340891
 C          3.0692132497        1.6562951988       -0.2670842510
 C          1.9998322800        2.3942962093        0.1993237389
 C          1.1092406703        2.9344327796       -0.7127035912
 C          1.2951509803        2.7165155294       -2.0689838312
 C          2.3687189000        1.9663447889       -2.5208049311
 C          3.2676299097        1.4297215086       -1.6134080210
 H          4.1201897794        0.8492834282       -1.9251118908
 H          2.5060418900        1.7953753888       -3.5762410810
 H          0.5983657705        3.1348120597       -2.7784189213
 H          0.2717957805        3.5164750200       -0.3627012813
 H          1.8904288999        2.5474922994        1.2615465289
 H          2.7963866487       -0.1236314509        2.3229131391
 H          4.4169962183       -1.4787537918       -0.6142203606
 H          3.2218009178       -2.9250817614       -2.2388649406
 H          0.8479057176       -3.4516773204       -1.9151693508
 C         -0.7959977322       -2.5876516095        0.1497831490
 H         -0.8708777825       -3.2185282194        1.0478282091
 C         -1.4981307124       -3.2853473293       -0.9967378110
 C         -1.4629125931       -4.7789662093       -1.1092520509
 C         -2.7300688528       -4.0871922887       -0.7074990010
 H         -3.5469083227       -4.0522519684       -1.4127246911
 H         -3.0473265529       -4.1538670485        0.3234359290
 H         -1.4133257832       -5.2221602294       -2.0924001108
 H         -0.9229194534       -5.3255909895       -0.3509432708
 H         -1.4853437521       -2.7008423994       -1.9093967310
 O         -0.8650146711       -0.2517982496       -1.5336766212
