  62
        -98.94003729
 C          2.3358428419        1.2471456361        0.0406072092
 C          2.4423445285        0.0428732560       -0.6955759200
 C          3.8115096398       -0.4122674304       -0.9794226021
 C          4.8541520677        0.3278749864       -0.5599544131
 C          6.2971643800       -0.0468445503       -0.7327153858
 C          6.8108885950       -0.8446657190        0.4740953603
 C          5.9017737191       -2.0049510470        0.8793983091
 H          6.3779850262       -2.5131343105        1.7206837739
 H          4.9517591648       -1.6050257876        1.2413685777
 C          5.6279299899       -3.0179822505       -0.2409412692
 H          6.3735718984       -2.9094822336       -1.0293110278
 H          5.7299126338       -4.0263272545        0.1656126846
 C          4.2286207933       -2.9248830382       -0.8526493928
 H          3.4774072710       -2.9383441438       -0.0584356047
 H          4.0666065675       -3.8130807021       -1.4693662985
 C          3.9677584688       -1.6998501808       -1.7383603217
 H          4.7553277903       -1.6135012074       -2.4898209149
 H          3.0160418355       -1.8598008886       -2.2541264060
 H          7.8060627760       -1.2254606473        0.2378622202
 H          6.8993441367       -0.1658110717        1.3253732224
 H          6.4082904488       -0.6322904530       -1.6431908408
 H          6.8815028998        0.8699154174       -0.8266604693
 O          4.7099047674        1.4918649969        0.1235714808
 C          3.4531649628        1.9731353351        0.4521515403
 O          3.4626146616        3.0366084648        1.1044491748
 H         -1.6237524278        0.9628063682       -0.0729306762
 C         -1.1506812096        0.4383710749        0.7384184332
 C          0.1535648742        0.7380476331        1.1001393815
 C          0.7314678137        0.0444602103        2.1601912466
 C          0.0342638962       -0.9521035000        2.8138645413
 C         -1.2508156329       -1.2796442779        2.4199164755
 C         -1.8464363691       -0.5797257771        1.3768779798
 N         -3.1744116155       -0.8685504089        1.0136512300
 S         -3.7368799465       -1.0224194292       -0.5659445527
 O         -3.7493078642       -2.4268718949       -0.9225142754
 O         -3.0403978225       -0.1333201048       -1.4563316658
 C         -5.4114018417       -0.4543870882       -0.3383261008
 C         -6.4665835714       -1.3420288192       -0.4082741454
 C         -7.7543300406       -0.8698977443       -0.2052958906
 C         -7.9622258554        0.4737628717        0.0647962739
 C         -6.8915217367        1.3534541288        0.1319332948
 C         -5.6027973723        0.8873992949       -0.0705523453
 H         -4.7421540142        1.5351504436       -0.0302867551
 H         -7.0566961625        2.3980330183        0.3418820186
 H         -8.9646095218        0.8391762276        0.2232597424
 H         -8.5887195568       -1.5506151577       -0.2581547461
 H         -6.2579657931       -2.3773395378       -0.6243669409
 H         -3.5552517509       -1.6374892336        1.5495215101
 H         -1.7898028940       -2.0722044069        2.9175101436
 H          0.4979060208       -1.4883017887        3.6286437548
 H          1.7433892080        0.2899432230        2.4550931602
 C          0.9659735940        1.7968751788        0.3958421990
 H          1.1416800587        2.6253740413        1.0980972466
 C          0.2951395573        2.3471055887       -0.8458161687
 C         -0.6663380692        3.4915357504       -0.7424467970
 C          0.6911950022        3.7045900502       -1.3401425975
 H          0.7697042033        3.8629615025       -2.4053158638
 H          1.4285118012        4.2431003244       -0.7623280084
 H         -0.8556354526        3.8983308120        0.2394632264
 H         -1.5224602209        3.5009513937       -1.4003137144
 H          0.0976055195        1.5809549820       -1.5881863243
 O          1.4489043657       -0.6222193188       -1.0927910096
