  62
        -98.94963510
 C          1.7046041306        1.2074876203        0.3360473787
 C          1.3254559903        0.1439475602       -0.5158139909
 C          1.8636794702       -1.1750815298       -0.1718335008
 C          2.6336797905       -1.3163554696        0.9219480690
 C          3.2325235905       -2.6027484196        1.4227108292
 C          4.5472867002       -2.9934306999        0.7330227089
 C          4.4075789497       -3.4936619803       -0.7053448509
 H          3.6610768196       -4.2876946702       -0.7401172505
 H          5.3666313196       -3.9345499305       -0.9844324011
 C          4.0504699496       -2.4026964305       -1.7243060111
 H          4.6892202893       -2.5042074708       -2.6044723513
 H          4.2535337898       -1.4206066704       -1.2912597614
 C          2.6010470994       -2.4387789904       -2.2083766507
 H          2.4199931892       -3.3665592605       -2.7552951704
 H          2.4491910893       -1.6043579306       -2.8972859208
 C          1.5601417298       -2.3224759100       -1.0870701004
 H          1.5058592798       -3.2523516499       -0.5208053201
 H          0.5822895897       -2.1370218000       -1.5384499902
 H          5.0017066703       -3.7884057599        1.3288517690
 H          5.2212369303       -2.1339510600        0.7568416685
 H          3.4302983208       -2.4581016594        2.4872911591
 H          2.5051415403       -3.4083048995        1.3150524896
 O          2.9520391709       -0.2734820295        1.7350826687
 C          2.4960996209        1.0067000405        1.4647454385
 O          2.8576382313        1.8689148807        2.2936296182
 H         -0.4942252790        1.2148340709        1.6130602793
 C         -1.0288875191        1.7818600408        0.8644738193
 C         -0.3264782493        2.5745852005       -0.0343548611
 C         -1.0442101895        3.3029394504       -0.9751325710
 C         -2.4244070295        3.2108286705       -1.0303990006
 C         -3.1141374693        2.3778055408       -0.1685177102
 C         -2.4054878492        1.6550570810        0.7841691598
 N         -3.0548771590        0.7777021913        1.6784305602
 S         -2.6686251693       -0.8507801088        1.5725373105
 O         -3.5124807091       -1.4972003584        2.5555562709
 O         -1.2490830692       -1.0360642489        1.7292035101
 C         -3.2036686898       -1.3294575391       -0.0614853393
 C         -4.4236077199       -1.9655333190       -0.1945535688
 C         -4.8795935503       -2.2878437993       -1.4621608885
 C         -4.1152595806       -1.9608778196       -2.5723589588
 C         -2.8964966205       -1.3181834398       -2.4213635994
 C         -2.4308834701       -0.9949320195       -1.1553696796
 H         -1.4824782900       -0.4976385896       -1.0194756500
 H         -2.2958247207       -1.0593786101       -3.2786951696
 H         -4.4697420509       -2.2084442298       -3.5605298087
 H         -5.8266886304       -2.7892789792       -1.5800835681
 H         -4.9801679497       -2.2019247087        0.6980293815
 H         -4.0616158990        0.8742703614        1.6810236104
 H         -4.1880030994        2.2842554210       -0.2294709699
 H         -2.9681356796        3.7810274404       -1.7679949106
 H         -0.5212129296        3.9382216801       -1.6712054814
 C          1.1795585208        2.6061341803        0.0679326885
 H          1.4554884711        3.2108589705        0.9446808583
 C          1.8511493905        3.1889184499       -1.1594819819
 C          2.0923350706        4.6642581299       -1.2649353023
 C          3.2415380506        3.7318064698       -1.0301300424
 H          3.9410118303        3.5581603295       -1.8340868226
 H          3.6912125209        3.7057491100       -0.0477922625
 H          1.7695782510        5.2844627701       -0.4423319724
 H          2.0071619604        5.1333394296       -2.2335993124
 H          1.6096923801        2.6412369297       -2.0634219617
 O          0.5695154600        0.2898945100       -1.5126602208
