  62
        -98.93967132
 C          2.4575960273        1.0929523866       -0.3292319428
 C          3.7203423532        1.1172381348        0.3132059780
 C          4.7491734426        0.2433477600       -0.2598894304
 C          4.4608719732       -0.5078013499       -1.3383043845
 C          5.4064533902       -1.4392385140       -2.0468862263
 C          5.4992021654       -2.8328774065       -1.4105569029
 C          6.2559913767       -2.8923743530       -0.0830885616
 H          6.4314334171       -3.9470441953        0.1382308863
 H          7.2307591309       -2.4177720597       -0.2000342247
 C          5.5115053078       -2.2582655421        1.1003180476
 H          4.4535588625       -2.1479700614        0.8499003618
 H          5.5660540447       -2.9247325910        1.9641732877
 C          6.0601166463       -0.9009683611        1.5409246921
 H          7.0771706458       -1.0223894909        1.9202928738
 H          5.4376463634       -0.5301513966        2.3593081508
 C          6.0741661372        0.1641926178        0.4364977314
 H          6.2658349168        1.1353606571        0.8992746402
 H          6.8689236904       -0.0458481646       -0.2788116776
 H          6.0092854955       -3.4839329127       -2.1242724698
 H          4.4874993531       -3.2208848579       -1.2707202858
 H          6.3992897202       -0.9909884788       -2.0914053740
 H          5.0281409928       -1.5505278630       -3.0652704347
 O          3.2406398769       -0.4917019963       -1.9357521484
 C          2.2026183911        0.2824367894       -1.4356541236
 O          1.1353665154        0.1660947399       -2.0670071091
 O          3.9750541701        1.8363250515        1.3161427627
 C          1.3373032241        1.9392636475        0.2525850317
 C          0.3129720455        1.0067575835        0.8512407008
 C          0.6185308732        0.3614919897        2.0471680941
 C         -0.2654127539       -0.5389875253        2.6094036861
 C         -1.4686720444       -0.8241533879        1.9872601696
 C         -1.7818630830       -0.1890073901        0.7934626966
 C         -0.8993910892        0.7321031721        0.2397626799
 H         -1.1501142335        1.2122627785       -0.6929318608
 N         -2.9839128576       -0.4983455107        0.1320506618
 S         -4.3888465408       -0.6392185416        1.0551387641
 O         -4.5277974571        0.5031757655        1.9314565094
 O         -4.3873707293       -1.9278687005        1.7015945629
 C         -5.6333619617       -0.6057408970       -0.2187828105
 C         -6.3123627804        0.5695583166       -0.4773692587
 C         -7.2611324316        0.5865813513       -1.4877754615
 C         -7.5102721952       -0.5643928854       -2.2199943587
 C         -6.8201324773       -1.7366255723       -1.9484921635
 C         -5.8716950239       -1.7611593910       -0.9386059351
 H         -5.3174539400       -2.6502601540       -0.6869480873
 H         -7.0182387930       -2.6296612056       -2.5190045819
 H         -8.2487143999       -0.5485590915       -3.0060004639
 H         -7.8014506211        1.4951893596       -1.6994991741
 H         -6.0912689460        1.4379140574        0.1223654360
 H         -3.1332813862        0.0889417117       -0.6768742653
 H         -2.1667713806       -1.5266780625        2.4129449444
 H         -0.0169805091       -1.0287749856        3.5392981786
 H          1.5647434880        0.5730335411        2.5263256527
 H          1.7988599567        2.5069128312        1.0724476033
 C          0.7763067585        2.9144090094       -0.7594991822
 C         -0.0632141577        4.0628619927       -0.2875735103
 C          1.3198860972        4.3095780153       -0.8086160124
 H          1.4317024307        4.7843580190       -1.7718168940
 H          2.0947024760        4.5688756858       -0.1021918015
 H         -0.9022654428        4.3725012320       -0.8918656910
 H         -0.2300300461        4.1531090986        0.7753079924
 H          0.5205376031        2.4500006390       -1.7042027545
