  62
        -98.94111975
 C         -2.2266114800       -0.9969859604        0.6019039898
 C         -2.0774155200        0.2515329098       -0.0486607799
 C         -3.2047656301        1.1812182597        0.0994678104
 C         -4.2755581400        0.8252419094        0.8325815903
 C         -5.4960278001        1.6681321093        1.0855192605
 C         -6.5439034501        1.5963326196       -0.0337654095
 C         -6.1701420201        2.3289490900       -1.3229857093
 H         -7.0735069801        2.3831282201       -1.9337423593
 H         -5.8753738001        3.3517545499       -1.0864324790
 C         -5.0632341201        1.6488184002       -2.1408543695
 H         -5.3528803700        1.6210724005       -3.1938317595
 H         -4.9513991300        0.6125028702       -1.8133826298
 C         -3.7019965301        2.3405647803       -2.0645717893
 H         -3.7702905801        3.3345255904       -2.5124016590
 H         -2.9870104601        1.7566880905       -2.6503268995
 C         -3.1438762401        2.4821940399       -0.6423715593
 H         -2.0930655201        2.7736599999       -0.7145191692
 H         -3.6866018001        3.2565387797       -0.1006969790
 H         -6.7453771900        0.5460815796       -0.2570031698
 H         -7.4655625601        2.0362051894        0.3539817106
 H         -5.9488546601        1.2913032090        2.0050717004
 H         -5.2003393201        2.7056070993        1.2427828308
 O         -4.3664590400       -0.3762406508        1.4631446599
 C         -3.3598104900       -1.3206443507        1.3475780896
 O         -3.5817519399       -2.3884048709        1.9539667993
 O         -1.0585751800        0.5754379500       -0.7130501398
 C         -1.1444448299       -2.0514209304        0.4688726995
 C          0.2008655600       -1.5039108504        0.8777272796
 C          0.3010448600       -0.6998889707        2.0099506299
 C          1.5195736900       -0.1889527408        2.4129712800
 C          2.6715936600       -0.4737999006        1.6996465899
 C          2.5859306500       -1.2830459802        0.5763058797
 C          1.3607201401       -1.7973404502        0.1756607596
 H          1.3190258701       -2.4217537799       -0.7039498606
 N          3.7721117101       -1.5709584100       -0.1497746104
 S          4.1993253900       -0.3797103096       -1.2665558700
 O          3.0816067700       -0.0290307794       -2.1155303499
 O          5.3628754000       -0.9017508694       -1.9503015902
 C          4.6564609700        1.0000411001       -0.2460409696
 C          3.7371136899        2.0069566000       -0.0272988193
 C          4.0913513199        3.0652916798        0.7947741010
 C          5.3488034799        3.0957402396        1.3789857210
 C          6.2603983399        2.0763514998        1.1467908907
 C          5.9132028300        1.0145688600        0.3268894504
 H          6.5883137900        0.2024950401        0.1133649402
 H          7.2369419799        2.1055511097        1.6025923207
 H          5.6191266498        3.9207458995        2.0191235912
 H          3.3829363998        3.8573211097        0.9777093912
 H          2.7685743599        1.9395430501       -0.4978953494
 H          3.7097473501       -2.4464715298       -0.6539262106
 H          3.6279217500       -0.0892384806        2.0137537801
 H          1.5750001500        0.4352147689        3.2917283302
 H         -0.5980050100       -0.4740425209        2.5676028699
 H         -1.4139290799       -2.8565021206        1.1689696392
 C         -1.1574036499       -2.6100139599       -0.9408410707
 C         -0.8073206398       -4.0445670799       -1.1967701911
 C         -2.2286168498       -3.5860524999       -1.3201317810
 H         -2.6665466198       -3.5157504196       -2.3045911010
 H         -2.9289804998       -3.8729048701       -0.5490939511
 H         -0.2703166898       -4.2916078696       -2.1008784012
 H         -0.5467190498       -4.6563839801       -0.3461780613
 H         -0.8677406599       -1.8717799297       -1.6816801105
