  62
        -98.93688324
 C          2.4208305310        1.1334734658        0.2205892834
 C          2.5151486618       -0.0185961819       -0.5989762975
 C          3.8805476398       -0.4534144427       -0.9293654214
 C          4.9389865364        0.2357342132       -0.4683218163
 C          6.3864226645       -0.0708817829       -0.7418695068
 C          6.9860877454       -1.1312123312        0.1919552280
 C          6.5133431297       -2.5633738229       -0.0608933398
 H          6.6464077080       -2.8078644291       -1.1151508963
 H          7.1688280662       -3.2223545777        0.5119216874
 C          5.0595860085       -2.8329818229        0.3524070504
 H          4.7187440309       -2.0421927469        1.0247184922
 H          5.0072560376       -3.7706131003        0.9102532876
 C          4.0782642714       -2.9456756040       -0.8144638405
 H          4.3287236299       -3.8187609065       -1.4211372592
 H          3.0750594401       -3.0939484851       -0.4063478796
 C          4.0379456952       -1.7127845747       -1.7267507927
 H          4.9380672281       -1.6667837124       -2.3394073090
 H          3.1692784433       -1.8011190282       -2.3838973282
 H          6.7651590171       -0.8514987939        1.2246196975
 H          8.0706274073       -1.1013704172        0.0643947346
 H          6.5043165947       -0.3878130259       -1.7783769251
 H          6.9339533976        0.8631711582       -0.5986692905
 O          4.8057637196        1.3380475587        0.3171802181
 C          3.5551097855        1.7913629792        0.7035271060
 O          3.5843555998        2.7745853937        1.4707451946
 H         -1.3945880967        0.9111280439       -0.3252973569
 C         -1.0576134473        0.3168004408        0.5073664673
 C          0.1689159961        0.5597838989        1.1026227602
 C          0.5724653450       -0.2587523518        2.1552517063
 C         -0.2291705870       -1.2938403845        2.5939792769
 C         -1.4628983216       -1.5210624649        2.0092826033
 C         -1.8732552767       -0.7125640197        0.9569112793
 N         -3.1088747072       -0.9276689784        0.3254584631
 S         -3.9709099495        0.4169068039       -0.2181377981
 O         -3.5262860408        0.7616530467       -1.5448729224
 O         -3.9128427329        1.4728707557        0.7682640987
 C         -5.6187061765       -0.2623704452       -0.2961763010
 C         -5.9920439168       -0.9785985174       -1.4178168029
 C         -7.2616015230       -1.5320574492       -1.4671336974
 C         -8.1318756224       -1.3614515423       -0.4006114007
 C         -7.7437984665       -0.6388268526        0.7176151936
 C         -6.4749711637       -0.0838598553        0.7741037309
 H         -6.1334103673        0.4936612108        1.6180711349
 H         -8.4237808769       -0.5050364959        1.5434662621
 H         -9.1199180503       -1.7918990215       -0.4426135243
 H         -7.5678473450       -2.0917573659       -2.3361500776
 H         -5.2851219806       -1.0763292387       -2.2253098753
 H         -3.6997283252       -1.5801682093        0.8219536745
 H         -2.0947446639       -2.3245951610        2.3563903474
 H          0.1026960483       -1.9237530573        3.4058682324
 H          1.5326053987       -0.0737905459        2.6192132296
 C          1.0794019673        1.6836431409        0.6721324308
 H          1.3051830743        2.2885907550        1.5671483889
 C          0.4253359863        2.6239633215       -0.3291454953
 C          1.2460006716        3.4605665126       -1.2632465936
 C          0.4092950181        2.3399687331       -1.7996563784
 H         -0.4864215492        2.5795875960       -2.3549431597
 H          0.9020516258        1.4425978158       -2.1390151563
 H          0.9312762550        4.4761285127       -1.4507513886
 H          2.3185368882        3.3323868070       -1.2383125226
 H         -0.4636443166        3.0953153671        0.0819863843
 O          1.5267348034       -0.6594954858       -1.0393575194
