  62
        -98.94425979
 C         -2.1633254426       -1.3978166027       -0.0375736254
 C         -2.4958234354       -0.4086841290       -0.9948820518
 C         -3.8310306535        0.1892687091       -0.8575413481
 C         -4.6617208513       -0.2261656106        0.1147839131
 C         -6.0567707987        0.2769102911        0.3677184203
 C         -6.1130620979        1.5589745545        1.2096770555
 C         -5.6626704792        2.8304482358        0.4891892550
 H         -6.2007467595        2.9220750840       -0.4548559323
 H         -5.9574485373        3.6749753052        1.1152447939
 C         -4.1512333960        2.9118007143        0.2325067612
 H         -3.6323721907        2.1946364936        0.8732007350
 H         -3.7875411764        3.9045367566        0.5075874774
 C         -3.7400073991        2.6658339812       -1.2192761070
 H         -2.6491861499        2.7104416937       -1.2768282208
 H         -4.1428954420        3.4588226432       -1.8534265464
 C         -4.1915241115        1.3121380115       -1.7830759518
 H         -5.2648865452        1.3221746600       -1.9706001282
 H         -3.6718436602        1.1445369408       -2.7295931947
 H         -5.5065097913        1.4150349196        2.1068697596
 H         -7.1493278774        1.6950339104        1.5275464078
 H         -6.5785763905       -0.5143333143        0.9103614870
 H         -6.5662854079        0.4411906258       -0.5821261252
 O         -4.3174788089       -1.1998796350        0.9979411367
 C         -3.0638782032       -1.7842805080        0.9609124575
 O         -2.8737706023       -2.6361720440        1.8517807652
 O         -1.7396413353       -0.0302678152       -1.9288925438
 C         -0.8080014161       -2.0894656706       -0.0012365355
 C          0.2198504677       -1.1522937599        0.5870649113
 C          0.6417312776       -1.3107414394        1.9027579119
 C          1.5580578602       -0.4367504152        2.4606277294
 C          2.0739599396        0.6105007889        1.7185043414
 C          1.6594110358        0.7757792256        0.4028551031
 C          0.7467860984       -0.1070509895       -0.1581211497
 H          0.4093047873        0.0447842027       -1.1718957170
 N          2.1752696125        1.8358306954       -0.3591761209
 S          3.8127348495        2.1546576360       -0.2646683404
 O          4.0861939212        2.9498903156        0.9072623132
 O          4.1580603700        2.7623432939       -1.5307314858
 C          4.5969596453        0.5594836591       -0.1013527169
 C          5.3917494999        0.2945880761        0.9951304808
 C          5.9745753355       -0.9569580973        1.1149066671
 C          5.7498590280       -1.9184107902        0.1422832712
 C          4.9509770152       -1.6359992349       -0.9552943702
 C          4.3678653835       -0.3858811851       -1.0815120932
 H          3.7450337765       -0.1358743902       -1.9253781631
 H          4.7773456454       -2.3856377422       -1.7104531491
 H          6.1994085078       -2.8940743873        0.2384152435
 H          6.5973504066       -1.1783344982        1.9666353963
 H          5.5360174114        1.0701355439        1.7297459380
 H          1.8359713669        1.8616209422       -1.3091518063
 H          2.7757700951        1.3106632896        2.1420641829
 H          1.8720582412       -0.5696351549        3.4846493552
 H          0.2288329944       -2.1168450109        2.4921075765
 H         -0.9261557718       -2.9323268151        0.6921005854
 C         -0.3888573581       -2.6355580853       -1.3518511516
 C          0.6933025864       -3.6697412282       -1.4118309540
 C         -0.7263920668       -4.0522942403       -1.7019249546
 H         -1.0044872986       -4.2785981158       -2.7204800082
 H         -1.2598483577       -4.6360740320       -0.9657250646
 H          1.3921708194       -3.6360676554       -2.2332701606
 H          1.1247629769       -3.9952215136       -0.4774732782
 H         -0.4373930804       -1.9071423333       -2.1499549570
