  62
        -98.93159891
 C          2.2379641927        0.8097734945        0.1126156554
 C          3.5497878347        1.2512197773        0.4154241597
 C          4.6589315037        0.5451491312       -0.2489547172
 C          4.3757314092       -0.4740403708       -1.0779783005
 C          5.3479622827       -1.3545940199       -1.8133815353
 C          5.6538128057       -2.6238773867       -1.0001300034
 C          6.7960895775       -2.4853450952        0.0056613762
 H          6.8195843503       -3.4026897322        0.5983462293
 H          7.7429039245       -2.4198618544       -0.5343912113
 C          6.6912041793       -1.2890182327        0.9551565354
 H          5.6638389723       -1.1906009802        1.3105919034
 H          7.3156744650       -1.4969545240        1.8261609684
 C          7.1518970679        0.0300541917        0.3173155511
 H          7.6713339051       -0.1877279004       -0.6156493423
 H          7.8803045766        0.5131226476        0.9718102920
 C          6.0392577828        1.0572051132        0.0611603927
 H          6.3518232692        1.7279045671       -0.7462676712
 H          5.9076850892        1.6812047133        0.9507863024
 H          5.9079846962       -3.4298075353       -1.6915935303
 H          4.7374630141       -2.9163446698       -0.4807490699
 H          4.8582768876       -1.6477490067       -2.7444112551
 H          6.2571151726       -0.8105023171       -2.0514677285
 O          3.1015527665       -0.8885626046       -1.3182210333
 C          2.0039950739       -0.2761766502       -0.7313453801
 O          0.9148322617       -0.7961060746       -1.0388471939
 O          3.7860077941        2.1916455807        1.2205350080
 C          1.0827998195        1.5286123049        0.7850671046
 C          0.0857302753        0.5349916137        1.3262266341
 C          0.5120473080       -0.3828633141        2.2829641925
 C         -0.3577470401       -1.3267293225        2.7917539062
 C         -1.6725450279       -1.3706010497        2.3632439752
 C         -2.1136241321       -0.4487750886        1.4210403140
 C         -1.2360496419        0.4983719188        0.9118664813
 H         -1.5940574599        1.1822769184        0.1620896963
 N         -3.4626057594       -0.4456731089        1.0239511989
 S         -3.9394481605        0.0579603551       -0.5118583169
 O         -3.3350633504       -0.7596771995       -1.5394726898
 O         -3.7460237446        1.4818533267       -0.6220439219
 C         -5.6848685094       -0.2960482135       -0.3988772625
 C         -6.1929997606       -1.4317173757       -1.0000173393
 C         -7.5469889803       -1.7048450408       -0.8825482557
 C         -8.3650640552       -0.8437043328       -0.1671075540
 C         -7.8410120983        0.2933470531        0.4300589258
 C         -6.4887372085        0.5727621320        0.3148370206
 H         -6.0389652531        1.4480365474        0.7534081636
 H         -8.4808320218        0.9619962093        0.9830044210
 H         -9.4181836392       -1.0584485832       -0.0770152044
 H         -7.9572884189       -2.5860356152       -1.3489538904
 H         -5.5198037216       -2.0676117468       -1.5524826226
 H         -3.9386001725       -1.3022592502        1.2734502397
 H         -2.3511305541       -2.1135200091        2.7543611679
 H         -0.0097743555       -2.0397423600        3.5242974369
 H          1.5431262835       -0.3547397132        2.6097806532
 H          1.5447048646        2.0463391369        1.6431996829
 C          0.4419215694        2.6066116384       -0.0759840878
 C          1.2141273376        3.3171976913       -1.1456607149
 C          0.1053462264        2.3815483014       -1.5185807900
 H         -0.8196977930        2.7926365502       -1.8974948729
 H          0.3555882169        1.4228457718       -1.9465005236
 H          1.0577027049        4.3779324916       -1.2713902090
 H          2.2308615738        2.9995143528       -1.3259838154
 H         -0.2582149322        3.2136567738        0.4908099432
