  62
        -98.93801766
 C         -2.6954029411       -1.2325150366        0.2090763981
 C         -2.9695539427       -0.2681827292        1.2132590793
 C         -4.0468238223        0.6863725746        0.9278137728
 C         -4.7161161407        0.5884862543       -0.2351054690
 C         -5.7925396619        1.5307456671       -0.6880863041
 C         -5.2042257624        2.6877786175       -1.5079892529
 C         -4.0061548590        3.3682919153       -0.8455208753
 H         -3.1743402082        2.6613698066       -0.7992687827
 H         -3.6954240716        4.1865291810       -1.4987015704
 C         -4.2846408230        3.9153448755        0.5615786944
 H         -3.8613841870        4.9191664062        0.6369879268
 H         -5.3602010435        4.0050296432        0.7181365012
 C         -3.6753546873        3.0890634226        1.6958826244
 H         -3.7431054076        3.6739858069        2.6170958613
 H         -2.6149117000        2.9160457198        1.4950059372
 C         -4.3409772959        1.7334265936        1.9646819784
 H         -5.4181066117        1.8683911861        2.0820709472
 H         -3.9382020364        1.3456002812        2.9049655561
 H         -5.9921610920        3.4227069719       -1.6824812810
 H         -4.8829430845        2.2969655708       -2.4761989773
 H         -6.4961621562        0.9763362939       -1.3112604902
 H         -6.3194342763        1.9180339832        0.1817830989
 O         -4.4454521018       -0.3626119382       -1.1621260024
 C         -3.4162881447       -1.2802350473       -0.9849478097
 O         -3.2743040174       -2.0596792618       -1.9443465559
 O         -2.3386532635       -0.2135047263        2.3036403160
 C         -1.5484196036       -2.1893849908        0.4880100958
 C         -0.2759307176       -1.5882210644       -0.0533382430
 C         -0.1209926102       -1.3408355992       -1.4147889637
 C          1.0379738678       -0.7564459208       -1.8899025848
 C          2.0576840744       -0.3975122068       -1.0241329240
 C          1.9121594938       -0.6368930055        0.3351830847
 C          0.7501792448       -1.2354552741        0.8094820656
 H          0.6326856489       -1.4075614879        1.8709186664
 N          2.9238153040       -0.2498373794        1.2245592607
 S          4.5330075760       -0.5031855689        0.8369849158
 O          4.6992390719       -1.6691788021        0.0010883549
 O          5.2233983667       -0.5193971492        2.1076598213
 C          4.9942122923        0.9654582619       -0.0576689072
 C          4.7552090527        2.1904813834        0.5336258375
 C          5.1141424436        3.3431072453       -0.1464916072
 C          5.7056341522        3.2520239286       -1.3977525273
 C          5.9433143021        2.0145492699       -1.9758654166
 C          5.5855947159        0.8576554620       -1.3010171185
 H          5.7466327807       -0.1254235352       -1.7143989974
 H          6.4038966554        1.9459389340       -2.9483109889
 H          5.9827934980        4.1510631891       -1.9252649116
 H          4.9307398370        4.3072429824        0.2998854254
 H          4.2963119359        2.2198908453        1.5078756501
 H          2.7323431998       -0.4579525525        2.1931648428
 H          2.9598129219        0.0616298961       -1.3935064055
 H          1.1483547990       -0.5712771556       -2.9477262204
 H         -0.9219045059       -1.6087970855       -2.0875263881
 H         -1.4645785352       -2.2064649289        1.5858584186
 C         -1.8106822784       -3.6150067110        0.0225770442
 C         -0.8947709500       -4.3676946128       -0.8926659977
 C         -0.9658424939       -4.7343249414        0.5568872672
 H         -1.4454837641       -5.6591869415        0.8395141742
 H         -0.1247005841       -4.4659788683        1.1793016252
 H         -1.3459395585       -5.0270756698       -1.6184514729
 H         -0.0018311710       -3.8767564414       -1.2469829415
 H         -2.8685596227       -3.8235931750       -0.0908014191
