  62
        -98.94267917
 C          1.3576313473        1.1577039802       -0.7802554693
 C          0.9630717500        1.9769954574        0.3028034183
 C         -0.3219743029        2.6844495800        0.1544615364
 C         -1.0663841863        2.4767497162       -0.9446134795
 C         -2.3801069729        3.1062369144       -1.3414851447
 C         -3.4265353421        3.3497560950       -0.2489498063
 C         -3.5012894357        2.2656592348        0.8359948732
 H         -4.5363296101        1.9337944628        0.9409817223
 H         -2.9083002218        1.3930635700        0.5546017513
 C         -3.0168891500        2.7522282523        2.2027824115
 H         -3.4034553285        3.7578662048        2.3859324269
 H         -3.4264005539        2.0930465606        2.9721009283
 C         -1.4991406021        2.7499796266        2.3702626289
 H         -1.1387415545        1.7174594600        2.3440005304
 H         -1.2643011012        3.1508651125        3.3597376285
 C         -0.7217361891        3.5524512206        1.3127143402
 H         -1.2849105288        4.4249762979        0.9885344813
 H          0.2128687335        3.8918340539        1.7680106642
 H         -3.2426255842        4.3130626335        0.2246060276
 H         -4.3921914648        3.4267591412       -0.7522880965
 H         -2.1591678560        4.0559427235       -1.8387371562
 H         -2.7966176440        2.4390542359       -2.1006265685
 O         -0.6694960356        1.6340558178       -1.9420789975
 C          0.5330302796        0.9522314513       -1.8836040139
 O          0.7492769627        0.2045008113       -2.8592864844
 H          0.6031739503       -1.2223334238       -0.2088588186
 C          1.3700192492       -1.3509404717        0.5414248972
 C          2.5436073750       -0.6147653266        0.4407837789
 C          3.5307900389       -0.8067610357        1.3975333626
 C          3.3233935701       -1.6899118036        2.4440860792
 C          2.1309041485       -2.3789404389        2.5696032861
 C          1.1424136041       -2.2029279038        1.6075913406
 N         -0.0860284075       -2.8776741596        1.6796476422
 S         -1.4710047524       -2.0807372075        1.1742025748
 O         -1.4064985297       -0.6635021245        1.4389071387
 O         -2.5515130312       -2.7947795513        1.8247610450
 C         -1.5591935270       -2.3888801449       -0.5761197948
 C         -2.0424916627       -1.3960091709       -1.4038348661
 C         -2.1359645430       -1.6389584983       -2.7642140737
 C         -1.7510197021       -2.8701041630       -3.2701921213
 C         -1.2761194856       -3.8615042516       -2.4250688667
 C         -1.1798986948       -3.6236545845       -1.0636179591
 H         -0.8081992690       -4.3673534160       -0.3786126565
 H         -0.9756291041       -4.8168375121       -2.8244940524
 H         -1.8172913306       -3.0534887861       -4.3309636746
 H         -2.4933285470       -0.8621398547       -3.4208834773
 H         -2.3155370153       -0.4447581066       -0.9735440508
 H         -0.2394418922       -3.4056373273        2.5264992748
 H          1.9608508563       -3.0422532943        3.4039707394
 H          4.0954694225       -1.8277464647        3.1859097300
 H          4.4551077485       -0.2564603259        1.3334770565
 C          2.6487951963        0.3601237312       -0.7074750396
 H          2.7004786011       -0.2178284140       -1.6421310843
 C          3.8526753649        1.2732472847       -0.6272510852
 C          5.1792982254        0.8162835369       -1.1534514755
 C          4.3999545778        1.8614550033       -1.8918545685
 H          4.7547445050        2.8809513771       -1.8746969798
 H          3.9170024906        1.5830876494       -2.8173837526
 H          6.0738265098        1.1204413158       -0.6312242577
 H          5.2329527573       -0.1722562099       -1.5837598899
 H          3.8382595700        1.9048106425        0.2531814140
 O          1.6590030123        2.1346277311        1.3399308642
