  62
        -98.93908327
 C         -2.1928445257       -1.0732562433        0.5321066750
 C         -2.3773642077       -0.2734121465       -0.6193167363
 C         -3.1932575580        0.9438024305       -0.4495168136
 C         -3.6835235021        1.2499467286        0.7659848362
 C         -4.5024560943        2.4319569187        1.2419155167
 C         -5.2098893431        3.3457775741        0.2443607068
 C         -6.3477143892        2.6864573435       -0.5339697163
 H         -7.1653834054        2.4735743047        0.1591767078
 H         -6.7147733514        3.4032068076       -1.2717846813
 C         -5.9927418443        1.3818238050       -1.2429318261
 H         -5.7306634330        0.6219153200       -0.5039733592
 H         -6.8881146990        1.0300334355       -1.7624304231
 C         -4.8681121685        1.4812215127       -2.2720371265
 H         -4.8336959855        0.5324140874       -2.8139036276
 H         -5.0963874214        2.2692662656       -2.9921182365
 C         -3.4629329956        1.7342873290       -1.6970562132
 H         -2.7278804223        1.3996625177       -2.4352396783
 H         -3.2883115310        2.7939708742       -1.5248687517
 H         -4.4895311288        3.7891172642       -0.4369455531
 H         -5.6400844720        4.1653584332        0.8265867668
 H         -5.2421819802        2.0192955613        1.9353128766
 H         -3.8210275356        3.0420147713        1.8456842939
 O         -3.4317815905        0.4713573728        1.8602824111
 C         -2.6955485934       -0.6970259665        1.7750855642
 O         -2.5544005794       -1.2963229822        2.8612196909
 H          0.2024163932       -0.5621663044        1.5650348774
 C          0.7079832838       -1.0593818546        0.7451199769
 C          0.0295596710       -2.0426583700        0.0347114712
 C          0.6865810212       -2.6737244764       -1.0124314826
 C          1.9820391147       -2.3138055679       -1.3434331122
 C          2.6510689148       -1.3318496101       -0.6367336564
 C          2.0050615855       -0.6983872704        0.4173430698
 N          2.6820610362        0.2895949661        1.1562320159
 S          3.3889652345        1.5564319450        0.3075609955
 O          3.4493595198        2.6527653999        1.2505715736
 O          2.7006489764        1.8153728288       -0.9357644211
 C          5.0427356419        0.9791625565       -0.0127785963
 C          5.8177872081        0.5959209049        1.0643920392
 C          7.1097183261        0.1510639477        0.8341254180
 C          7.6030366946        0.1005780459       -0.4613010799
 C          6.8135122373        0.4924132169       -1.5315009464
 C          5.5194938042        0.9372063027       -1.3082392800
 H          4.8665899281        1.2464011208       -2.1090329221
 H          7.1986882200        0.4529153870       -2.5377399762
 H          8.6088784659       -0.2463549609       -0.6378467622
 H          7.7266032121       -0.1542872061        1.6638478449
 H          5.3974175446        0.6547092252        2.0544600617
 H          2.1431942970        0.6484076546        1.9316055213
 H          3.6579766314       -1.0470913146       -0.8946558433
 H          2.4780870199       -2.8066314662       -2.1655817394
 H          0.1815085216       -3.4391258644       -1.5778802928
 C         -1.3875832717       -2.3582414933        0.4495952027
 H         -1.3579263571       -2.7616279518        1.4725142288
 C         -2.0809220140       -3.3590835113       -0.4500338929
 C         -1.8763986301       -4.8282539222       -0.2390642298
 C         -3.1869151740       -4.1952151593        0.1175323270
 H         -4.0472966937       -4.4011361272       -0.5013441659
 H         -3.4248235880       -4.0595174830        1.1628783332
 H         -1.8396498598       -5.4734926950       -1.1036609898
 H         -1.2252632144       -5.1312940125        0.5667482488
 H         -2.1992351323       -2.9958644329       -1.4641573081
 O         -1.8845053697       -0.5552237619       -1.7422178956
