  62
        -98.93802590
 C         -1.9037046385        1.0867189115        0.1107617038
 C         -2.4098380847       -0.0020402437        0.8629625889
 C         -3.5227978099       -0.7383761267        0.2364873993
 C         -3.9760720665       -0.3878633726       -0.9788198540
 C         -5.0786353004       -1.0639749967       -1.7481584950
 C         -6.4882432178       -0.5967521768       -1.3606782115
 C         -6.9844818240       -1.0859613077        0.0004933494
 H         -8.0537223822       -0.8703069496        0.0480631201
 H         -6.8674907134       -2.1684346624        0.0608289258
 C         -6.2939720220       -0.4244659298        1.2013256992
 H         -5.7885988820        0.4870497410        0.8741199514
 H         -7.0459132723       -0.1279267054        1.9360403822
 C         -5.2838039371       -1.3169114694        1.9226765965
 H         -4.8293489281       -0.7382922087        2.7309263936
 H         -5.8003323841       -2.1697826436        2.3687281555
 C         -4.1545477582       -1.8441768461        1.0277298411
 H         -4.5322676315       -2.6209256200        0.3628322195
 H         -3.3818351780       -2.2775645763        1.6680178510
 H         -6.5131946166        0.4950417677       -1.3869320028
 H         -7.1748761263       -0.9637461788       -2.1269930934
 H         -4.9133013121       -0.8243050838       -2.8008236931
 H         -5.0039678656       -2.1446177630       -1.6224719017
 O         -3.4495729987        0.6531560989       -1.6781241627
 C         -2.4213499546        1.4119824031       -1.1477023532
 O         -2.0520664541        2.3520968585       -1.8798391884
 O         -1.9923405247       -0.3624414213        1.9918836785
 C         -0.7466286812        1.9802380035        0.5354348418
 C          0.4571169299        1.6885166382       -0.3259146901
 C          1.1922374119        2.7252049840       -0.8901411436
 C          2.2859730314        2.4618216475       -1.6943838442
 C          2.6807984769        1.1574037707       -1.9300183110
 C          1.9561421863        0.1138180605       -1.3671161612
 C          0.8457932475        0.3803070505       -0.5792763357
 H          0.2846501397       -0.4439904558       -0.1632992290
 N          2.3443510085       -1.2312381474       -1.5641518357
 S          2.9998153974       -1.9894638274       -0.2197321020
 O          3.4187791096       -3.2958805759       -0.6757351717
 O          2.0551406578       -1.9482902909        0.8642060212
 C          4.4338879083       -0.9994735469        0.1679201349
 C          4.2701207848        0.1539189380        0.9091827605
 C          5.3713050609        0.9642122660        1.1373069768
 C          6.6087670212        0.6110172190        0.6212707689
 C          6.7570337510       -0.5511060239       -0.1207911995
 C          5.6591753618       -1.3630958865       -0.3561791324
 H          5.7272020124       -2.2772633234       -0.9236963467
 H          7.7210651947       -0.8250676484       -0.5181222426
 H          7.4625835169        1.2451509213        0.8003926719
 H          5.2553598949        1.8669375148        1.7150611162
 H          3.2948290446        0.3941620120        1.3004824541
 H          2.9729063418       -1.3552321871       -2.3467557647
 H          3.5364631488        0.9443739206       -2.5532991087
 H          2.8381108185        3.2767850259       -2.1361582348
 H          0.8838038591        3.7445408885       -0.7114743374
 H         -1.0621370660        3.0115824599        0.3017027524
 C         -0.4178749706        1.9456871804        2.0189962342
 C          0.5985428323        1.0254633555        2.6163287915
 C          0.8896436333        2.4910578202        2.5154419217
 H          0.8906969735        3.0772090434        3.4218925290
 H          1.6096506810        2.8122640760        1.7775322195
 H          0.3736582076        0.6018679354        3.5834544985
 H          1.1094386396        0.3311948525        1.9665304086
 H         -1.2934326194        2.1446390413        2.6276283108
