  62
        -98.93782855
 C         -2.4759817905       -0.9407256689        0.6637707605
 C         -3.5267291003       -0.9389865795       -0.2863473197
 C         -4.7016129504       -0.1278038293        0.0631342695
 C         -4.7315209607        0.5589331514        1.2185787491
 C         -5.8672366608        1.4102691418        1.7178605983
 C         -5.8780618407        2.8365276114        1.1509712773
 C         -6.2902165804        2.9507633304       -0.3172175529
 H         -7.2342557104        2.4269920003       -0.4706255127
 H         -6.4685666804        4.0089837302       -0.5184096236
 C         -5.2426395902        2.4298582397       -1.3111740323
 H         -4.2739367403        2.3488621701       -0.8122151520
 H         -5.1226077500        3.1491093492       -2.1245608428
 C         -5.5858718600        1.0820807693       -1.9455313115
 H         -4.7585097899        0.7899696589       -2.5972526011
 H         -6.4809262799        1.1847483089       -2.5632345917
 C         -5.8165294102       -0.0497423400       -0.9361572307
 H         -6.7719780803        0.0861943203       -0.4300805210
 H         -5.8401760301       -0.9958031604       -1.4824736301
 H         -6.5819406108        3.4190946818        1.7498588668
 H         -4.8859387807        3.2736854915        1.2854843272
 H         -6.8161981507        0.9218209916        1.4945311584
 H         -5.7547002510        1.4720975825        2.8024154782
 O         -3.7002170409        0.5367247221        2.1040436093
 C         -2.5558125908       -0.1956601481        1.8448330000
 O         -1.6881929910       -0.1155719675        2.7387057602
 O         -3.5160452401       -1.5761719603       -1.3722147292
 C         -1.1874775405       -1.7285634290        0.4841835813
 C         -0.2191961103       -0.9884720896       -0.4086265990
 C         -0.4942736400       -0.7641757805       -1.7532865592
 C          0.4127360601       -0.0880065810       -2.5488993894
 C          1.6072888700        0.3753868594       -2.0262919295
 C          1.8924121697        0.1558428403       -0.6854935993
 C          0.9814294696       -0.5269946192        0.1113492310
 H          1.1999548094       -0.6862009385        1.1590733911
 N          3.0959441796        0.6394967507       -0.1410606394
 S          4.4987566398        0.4207854701       -1.0586878689
 O          4.5816251700        1.4870639594       -2.0251947396
 O          4.5343337599       -0.9211597503       -1.5950583280
 C          5.7602109195        0.6291353510        0.1821627412
 C          6.1550589194        1.9085629912        0.5242379504
 C          7.1195468092        2.0709334719        1.5059723405
 C          7.6691686491        0.9584440323        2.1258624914
 C          7.2633824692       -0.3192799880        1.7709313822
 C          6.2984702794       -0.4889767486        0.7905536921
 H          5.9602555395       -1.4634129088        0.4760767927
 H          7.6946978691       -1.1820997176        2.2524913928
 H          8.4208908390        1.0876313928        2.8884359115
 H          7.4398972192        3.0622357521        1.7832461299
 H          5.7072931495        2.7425655708        0.0095796498
 H          3.2312771094        0.3371171313        0.8140314109
 H          2.3240653101        0.8979049190       -2.6394769597
 H          0.1878729603        0.0812961683       -3.5915241696
 H         -1.4289706499       -1.1132547508       -2.1642106791
 H         -0.7383236807       -1.7857831383        1.4849221715
 C         -1.4148965803       -3.1422962693       -0.0150754778
 C         -0.3539819704       -4.1724334891        0.2232481332
 C         -1.6478566005       -4.2397571587        0.9769155329
 H         -2.3527762005       -5.0182445188        0.7270226933
 H         -1.6425074608       -3.9760983380        2.0248171428
 H         -0.1666699402       -4.9056047897       -0.5461155963
 H          0.5308606795       -3.8649230288        0.7602234831
 H         -1.9636614202       -3.1891460400       -0.9457276378
