  62
        -98.93733181
 C         -1.9492371706       -1.6002805028        0.1989063368
 C         -1.8552790090       -0.5360789299       -0.7293326145
 C         -2.9646117431        0.4314215920       -0.7100623594
 C         -3.9641320579        0.2864647486        0.1783189868
 C         -5.2138721502        1.1211482290        0.2838395048
 C         -5.0313921699        2.6062152469        0.6495524318
 C         -4.9476929149        3.5479971965       -0.5580333535
 H         -5.4433810869        3.0754098808       -1.4070243739
 H         -5.5092637864        4.4573592973       -0.3348162513
 C         -3.5367409447        3.9812272163       -0.9657524161
 H         -3.1917003287        4.7608353257       -0.2828424217
 H         -3.5957718062        4.4215458934       -1.9634426664
 C         -2.4792016195        2.8775914357       -0.9725124357
 H         -1.5842733548        3.2739292701       -1.4572322375
 H         -2.2037183017        2.6304532482        0.0555621954
 C         -2.9072803597        1.5774399110       -1.6791535760
 H         -3.8707361721        1.7074445797       -2.1707352381
 H         -2.1698427795        1.3062236858       -2.4376081360
 H         -5.9007415286        2.8922138079        1.2437189070
 H         -4.1546996801        2.7203997288        1.2861452350
 H         -5.8176101622        0.6372983826        1.0545182199
 H         -5.7601415559        1.0468155118       -0.6596885824
 O         -3.9823084259       -0.7195282938        1.0953464887
 C         -2.9914961102       -1.6833554257        1.1254484693
 O         -3.1470162775       -2.5523490424        2.0062710325
 O         -0.9143777293       -0.4022758207       -1.5551394420
 C         -0.9230495318       -2.7223235971        0.2225338378
 C          0.4270319986       -2.1730410467        0.6101220809
 C          0.6960816884       -1.9128908216        1.9513110767
 C          1.9139540325       -1.3856347034        2.3382636474
 C          2.8821954054       -1.0853899717        1.3950723038
 C          2.6105330242       -1.3152733903        0.0531445667
 C          1.3973829861       -1.8722928007       -0.3311410360
 H          1.2029504514       -2.0409350789       -1.3778562944
 N          3.5613355518       -0.9732295553       -0.9208074511
 S          4.4477129536        0.4270656731       -0.7200305131
 O          4.7671573288        0.8699765073       -2.0597701269
 O          5.5828159206        0.1585431204        0.1297459217
 C          3.3825053167        1.6127029874        0.0882684778
 C          2.0687138091        1.7478108820       -0.3144379745
 C          1.2698010116        2.6825497014        0.3244089914
 C          1.7914629423        3.4691816181        1.3392211386
 C          3.1145551258        3.3263277124        1.7266512711
 C          3.9171158129        2.3881273416        1.0983854671
 H          4.9471212210        2.2333730190        1.3765139754
 H          3.5204867884        3.9375147583        2.5165416514
 H          1.1612762712        4.1939245683        1.8301642390
 H          0.2386712737        2.7810600399        0.0260011175
 H          1.6625251719        1.1263597351       -1.0971069078
 H          3.2276582389       -1.0663261946       -1.8689734489
 H          3.8392476402       -0.6785043406        1.6798967681
 H          2.1131099641       -1.2023626772        3.3830724677
 H         -0.0668088999       -2.1297710323        2.6863085030
 H         -1.2493276402       -3.4069352525        1.0166354832
 C         -0.9211054475       -3.4735106573       -1.0936500802
 C         -0.2833011285       -4.8270068318       -1.1694798671
 C         -1.7746212198       -4.6957725714       -1.2380376313
 H         -2.2659821568       -4.8721083452       -2.1832683203
 H         -2.3564935234       -5.0026335602       -0.3811326684
 H          0.2507859215       -5.0981196484       -2.0674515756
 H          0.1495722849       -5.2241258568       -0.2638441524
 H         -0.8429508604       -2.8260116338       -1.9585228739
