  62
        -98.93808750
 C         -2.7327742368       -0.5456428456       -0.3362882274
 C         -2.9819560843        0.3322047076        0.7502777134
 C         -2.9494206110        1.7691364939        0.4570169069
 C         -2.6955196810        2.1743423108       -0.7999950592
 C         -2.6117244405        3.6061302562       -1.2418232955
 C         -1.1728617073        4.1347001875       -1.1759572202
 C         -0.4661525371        3.8614309607        0.1522675896
 H         -0.2838571278        2.7878248825        0.2510870123
 H          0.5164580293        4.3362208862        0.0975702345
 C         -1.2106530624        4.3777148843        1.3913403839
 H         -0.4865803890        4.8548053181        2.0551964169
 H         -1.9345263761        5.1393616815        1.0980104928
 C         -1.9157509527        3.2959094812        2.2122104983
 H         -2.1856168755        3.7262345330        3.1805882175
 H         -1.2203052094        2.4728952449        2.4016817509
 C         -3.1957521916        2.7163985892        1.5962836442
 H         -3.7025117034        2.1304742817        2.3686924928
 H         -3.8578065135        3.5288599546        1.2895557385
 H         -1.1940012535        5.2101539880       -1.3637732661
 H         -0.5912889761        3.6596780349       -1.9693316543
 H         -3.2607607515        4.2107920190       -0.6111833892
 H         -2.9628765769        3.6665167495       -2.2736372623
 O         -2.4578721621        1.3092569981       -1.8159692850
 C         -2.4223156240       -0.0656761902       -1.6087785290
 O         -2.1177813310       -0.7117156243       -2.6293521272
 O         -3.2325093807       -0.0781362656        1.9160719910
 C         -2.7133838008       -2.0286778276       -0.0037341225
 C         -1.3510175046       -2.3855663538        0.5352917087
 C         -1.1925775195       -3.0926239774        1.7204826802
 C          0.0696507957       -3.3302988535        2.2383313618
 C          1.1970660604       -2.8561007524        1.5914032493
 C          1.0466820986       -2.1616895609        0.4003850153
 C         -0.2144367782       -1.9407152370       -0.1258010222
 H         -0.3178848829       -1.3840278276       -1.0475473459
 N          2.1980047706       -1.6046622060       -0.2289633502
 S          2.4701451956       -0.0396979005        0.3717197351
 O          2.4045579573       -0.0971124217        1.8101514636
 O          1.5839039644        0.9023590744       -0.2788748630
 C          4.1530125302        0.2393409464       -0.1447473076
 C          5.1527939191       -0.4594415257        0.5041236860
 C          6.4648391866       -0.2862449642        0.0948258488
 C          6.7533052393        0.5774452574       -0.9517701207
 C          5.7389650034        1.2723205687       -1.5922857815
 C          4.4235098164        1.1016421904       -1.1886031202
 H          3.6026949328        1.6229938921       -1.6549925932
 H          5.9655360307        1.9448100649       -2.4039707814
 H          7.7752733382        0.7107122096       -1.2697336723
 H          7.2565866430       -0.8239456201        0.5909655549
 H          4.8800971113       -1.1131510349        1.3156259494
 H          2.0454801085       -1.5033657577       -1.2257663938
 H          2.1830504002       -2.9971157264        2.0019913504
 H          0.1740621721       -3.8722966849        3.1657867514
 H         -2.0693070287       -3.4294984607        2.2541693404
 H         -3.4331628990       -2.1463892028        0.8222885597
 C         -3.1675651623       -2.9308883031       -1.1398711180
 C         -2.2354818713       -3.8140072704       -1.9086024455
 C         -3.2057722804       -4.4174208753       -0.9408275948
 H         -4.0492388684       -4.9687607913       -1.3271033991
 H         -2.8085043176       -4.8039488058       -0.0144751419
 H         -2.4128041045       -3.9243714351       -2.9672715033
 H         -1.1897134061       -3.8044094038       -1.6433665610
 H         -3.9843194880       -2.4918378698       -1.7028090324
