  62
        -98.94894582
 C         -0.8579956062       -1.3719799881        0.1905595554
 C         -1.4513558611       -0.3423958523        0.9562285393
 C         -2.2780794909        0.6122543888        0.2103293697
 C         -2.3680135693        0.5112726015       -1.1286525760
 C         -3.1160560016        1.4518954771       -2.0350657159
 C         -4.6093806369        1.1295050854       -2.1809621197
 C         -5.4628965552        1.4504644145       -0.9534976232
 H         -5.2862347989        2.4831574361       -0.6512177912
 H         -6.5075695074        1.3747290899       -1.2614289205
 C         -5.2290510105        0.5138746051        0.2398790264
 H         -4.7170899920       -0.3888098837       -0.1014350058
 H         -6.1915287085        0.2002183281        0.6500556019
 C         -4.4292746493        1.1335770076        1.3855434703
 H         -4.9929018274        1.9634174426        1.8173268069
 H         -4.3001326896        0.3739193531        2.1604518121
 C         -3.0371794645        1.6445549494        0.9885246738
 H         -3.1231613675        2.5692411562        0.4173788984
 H         -2.4760584728        1.8418287718        1.9047160495
 H         -4.9874938373        1.7115556304       -3.0246442455
 H         -4.7141579843        0.0718208887       -2.4335790818
 H         -2.6441938883        1.3722095930       -3.0172649050
 H         -2.9966415546        2.4759478782       -1.6787411346
 O         -1.7542591644       -0.4748189439       -1.8342771223
 C         -0.9951172162       -1.4436046647       -1.1965299233
 O         -0.5130366748       -2.3038488896       -1.9586051922
 O         -1.2898481656       -0.2200739092        2.2006667664
 C          0.0322489329       -2.3860244230        0.8863875121
 C          1.4209317957       -2.3051310825        0.3022844675
 C          2.1801230850       -3.4146553572       -0.0443882659
 C          3.4248746934       -3.2533573314       -0.6288873575
 C          3.9265343774       -1.9931261045       -0.8962329692
 C          3.1804166956       -0.8760803415       -0.5365710964
 C          1.9570186380       -1.0412675194        0.0885182505
 H          1.3833676181       -0.1697641865        0.3693433134
 N          3.6493346836        0.4231137628       -0.7803369949
 S          2.5630504157        1.6434479841       -1.1464391927
 O          1.4162463579        1.1633103525       -1.8815153574
 O          3.3704623656        2.6427377971       -1.8174592219
 C          2.0744247645        2.2897473215        0.4380058737
 C          0.7497699336        2.6051460400        0.6633163845
 C          0.3909369119        3.1576231830        1.8825039073
 C          1.3568389404        3.3780295517        2.8515122633
 C          2.6834395282        3.0543818954        2.6099880282
 C          3.0502864156        2.5097353105        1.3902199952
 H          4.0705683604        2.2498762002        1.1630345530
 H          3.4311164498        3.2255228802        3.3675867334
 H          1.0709555128        3.8032401497        3.8005913165
 H         -0.6406453247        3.4077643482        2.0702711852
 H          0.0244644952        2.3975152881       -0.1092526090
 H          4.4873430367        0.4798136050       -1.3406029043
 H          4.8814945086       -1.8703675091       -1.3839874603
 H          4.0033084844       -4.1232542198       -0.9009974981
 H          1.7919971865       -4.4052885959        0.1269327294
 H          0.0764811583       -2.0648978792        1.9380382443
 C         -0.5745456751       -3.7715735915        0.8223378962
 C         -0.3028578304       -4.7681242304        1.9085853838
 C         -1.6551614180       -4.1331525117        1.7955269484
 H         -2.4824364458       -4.7334561509        1.4477308761
 H         -1.9339097230       -3.3862944569        2.5244515850
 H         -0.2035630901       -5.8089839120        1.6398671491
 H          0.3346675740       -4.4583095051        2.7225505792
 H         -0.6748986296       -4.1329921956       -0.1951666005
