  62
        -98.93998633
 C          2.2860454883        0.9975103692       -0.4540180128
 C          3.2972833575        0.4675608484        0.3896830678
 C          3.8065305564       -0.8662481770        0.0526314188
 C          3.3004251618       -1.5061825282       -1.0168317065
 C          3.6738292146       -2.8968231681       -1.4405566008
 C          2.7523725875       -3.9390472624       -0.7917636434
 C          2.5948272310       -3.7701847139        0.7196022982
 H          2.0633730627       -2.8359701407        0.9181915919
 H          1.9541435700       -4.5819009615        1.0710457476
 C          3.9151570258       -3.7833746523        1.5029654618
 H          3.7938230728       -4.4201163814        2.3816705585
 H          4.7040295509       -4.2218067669        0.8908400783
 C          4.3673368774       -2.4112438721        2.0057016690
 H          3.5447477837       -1.9266530571        2.5377675960
 H          5.1787344261       -2.5616922222        2.7227027770
 C          4.8801201026       -1.4442990593        0.9314571104
 H          5.6458765882       -1.9361671860        0.3282314365
 H          5.3374931184       -0.5921932372        1.4426243881
 H          1.7625861408       -3.8565639506       -1.2478163602
 H          3.1476578253       -4.9328595785       -1.0104655246
 H          3.5761805762       -2.9636541083       -2.5254250355
 H          4.7091047058       -3.0887815357       -1.1648387583
 O          2.3485153047       -0.9640945241       -1.8161593148
 C          1.8066716952        0.2903450778       -1.5580848491
 O          0.9443463661        0.6328072849       -2.3909062728
 O          3.7605619226        1.0942746504        1.3812562998
 C          1.7530050600        2.3652199577       -0.0711677641
 C          0.5521928755        2.2691834885        0.8422743167
 C          0.4436231539        3.1054178964        1.9477100064
 C         -0.6708806503        3.0508162236        2.7648192621
 C         -1.6967885508        2.1650958588        2.4930948099
 C         -1.5923989335        1.3134762904        1.3974923248
 C         -0.4727457991        1.3715668334        0.5797830128
 H         -0.4116567280        0.7147571307       -0.2748190691
 N         -2.6000104404        0.3725188398        1.1396312439
 S         -2.8544335015       -0.1924592032       -0.4295120063
 O         -1.9088172069       -1.2467457167       -0.6972014993
 O         -2.8977652268        0.9140474533       -1.3575334161
 C         -4.4894740772       -0.8817146971       -0.2416598166
 C         -4.6267616570       -2.1735767269        0.2293159165
 C         -5.9003903581       -2.6920063757        0.4032506526
 C         -7.0097879519       -1.9144734331        0.1060835013
 C         -6.8569684760       -0.6203570138       -0.3684696436
 C         -5.5860513157       -0.0960393492       -0.5437622168
 H         -5.4174677621        0.9000146739       -0.9204933397
 H         -7.7206797793       -0.0193058485       -0.6028982598
 H         -7.9995604155       -2.3207524642        0.2417445305
 H         -6.0225909681       -3.6990139742        0.7681920642
 H         -3.7352363137       -2.7420843952        0.4374390245
 H         -3.4665908483        0.5725699108        1.6195009404
 H         -2.5686462418        2.1211739119        3.1275761335
 H         -0.7436108699        3.7060209458        3.6193596557
 H          1.2451994590        3.7941234917        2.1686547036
 H          2.5638722861        2.8416847650        0.4985847811
 C          1.4104621392        3.2558363381       -1.2499279305
 C          1.5120000047        4.7432947289       -1.1018377236
 C          2.5027947935        4.0047557907       -1.9497707127
 H          2.4488471950        4.1044096882       -3.0232459645
 H          3.5080288392        3.8848980527       -1.5724504248
 H          0.7724862414        5.3576675312       -1.5918405814
 H          1.8515796024        5.1329411526       -0.1544121605
 H          0.6056520632        2.8633914343       -1.8592153044
