  62
        -98.93953619
 C          2.2814096583        0.8906120253        0.6372365115
 C          3.4258124109        0.8984947794       -0.1979300856
 C          4.4471965729       -0.1179994490        0.1000779889
 C          4.2510609793       -0.9832930639        1.1101990638
 C          5.1807785585       -2.1027668933        1.4771628356
 C          4.8128746078       -3.3970508881        0.7382566801
 C          4.6139675916       -3.2148154038       -0.7665545058
 H          4.3895610877       -4.1981737560       -1.1855851565
 H          3.7360358178       -2.5866266946       -0.9357817961
 C          5.8200604384       -2.6096116252       -1.4983855182
 H          5.9932175865       -3.1767986279       -2.4153064053
 H          6.7144928324       -2.7084076368       -0.8823335658
 C          5.6446587366       -1.1457618349       -1.9060987505
 H          6.4507064346       -0.8866990467       -2.5976447040
 H          4.7005111529       -1.0258224647       -2.4432218783
 C          5.6797174610       -0.1263837302       -0.7606733170
 H          6.5718878079       -0.2863305405       -0.1522325077
 H          5.7402847537        0.8707809116       -1.2058966718
 H          5.5999407619       -4.1318760962        0.9171445226
 H          3.8829560179       -3.7843915352        1.1614587444
 H          5.1040442401       -2.2741118124        2.5521900974
 H          6.2018389121       -1.8127370187        1.2369949217
 O          3.1423813473       -0.9607118903        1.8943934010
 C          2.1404371750       -0.0311721157        1.6796753841
 O          1.1882032063       -0.1172813832        2.4831039768
 O          3.6126423538        1.7031150097       -1.1482982606
 C          1.1288259803        1.8708244888        0.4812203075
 C          0.1911733069        1.4456942432       -0.6241620188
 C          0.5984905837        1.4114255432       -1.9538718915
 C         -0.2837700333        1.0191393104       -2.9435331759
 C         -1.5822710157        0.6584829311       -2.6305789192
 C         -2.0021493520        0.6975426349       -1.3057319911
 C         -1.1134810598        1.0885072893       -0.3138811626
 H         -1.4431157231        1.0944130704        0.7145631282
 N         -3.3326185828        0.3864020341       -0.9751090144
 S         -3.6770978736       -0.3607147359        0.4981106419
 O         -3.6101229621        0.6261505107        1.5462953724
 O         -2.8598592798       -1.5425891008        0.6624226093
 C         -5.3787926501       -0.8138393263        0.2165126299
 C         -5.6975997634       -2.1194966618       -0.1041548999
 C         -7.0227659692       -2.4454651896       -0.3483586043
 C         -8.0003547194       -1.4650817087       -0.2712776912
 C         -7.6650743469       -0.1586042179        0.0527783548
 C         -6.3427155467        0.1735343789        0.2996911554
 H         -6.0355462868        1.1719480063        0.5636658815
 H         -8.4281283460        0.6003859243        0.1145128563
 H         -9.0304598816       -1.7213127363       -0.4622334005
 H         -7.2865381069       -3.4607773848       -0.5970843877
 H         -4.9046187937       -2.8489331376       -0.1455467924
 H         -3.8231507305       -0.0685031819       -1.7335948138
 H         -2.2686083749        0.3524636682       -3.4056550073
 H          0.0447873332        0.9900034971       -3.9715709523
 H          1.6145915710        1.6789777458       -2.1988726797
 H          0.5677694665        1.8160444932        1.4247440634
 C          1.5835053838        3.3041366398        0.2806684604
 C          0.6259853924        4.4129779663        0.5917124183
 C          1.8102619361        4.1733306413        1.4786774675
 H          2.6261613916        4.8799325420        1.4554459027
 H          1.6383909481        3.7363064559        2.4521519158
 H          0.6266629928        5.2867470829       -0.0414525882
 H         -0.3500825469        4.1388376564        0.9644002404
 H          2.2506108351        3.4319657099       -0.5609797075
