  62
        -98.94097161
 C          1.7214738858        0.1396289338        0.9298756199
 C          2.9243754394        0.8698784492        0.7692805695
 C          4.1358971138        0.0696004757        0.5287795344
 C          4.0484622014       -1.2705966904        0.4652735184
 C          5.1914627900       -2.1947590064        0.1630227106
 C          5.3069239133       -2.4628122045       -1.3442066019
 C          5.2767997186       -1.1977523852       -2.2019982121
 H          5.3958264648       -1.5078084097       -3.2424860883
 H          4.2922104189       -0.7320327733       -2.1166334770
 C          6.3571251742       -0.1655976554       -1.8500056201
 H          6.8070450106        0.2000252308       -2.7755128210
 H          7.1496210550       -0.6410656472       -1.2709078002
 C          5.8411007427        1.0587538491       -1.0918787122
 H          6.6320317378        1.8136124386       -1.0865255998
 H          4.9861322237        1.4848939876       -1.6228379149
 C          5.4306487606        0.8156610666        0.3658868709
 H          6.2379933551        0.3060286960        0.8955193966
 H          5.2753325745        1.7922362915        0.8336264936
 H          4.4734401768       -3.1007008986       -1.6470859924
 H          6.2353986840       -3.0066817743       -1.5275665144
 H          6.1149299507       -1.7564279678        0.5364071774
 H          5.0142925760       -3.1401997247        0.6784513755
 O          2.8784194166       -1.9391560063        0.6241401790
 C          1.6972666437       -1.2576559341        0.8546089939
 O          0.7004202963       -1.9966171763        0.9814678120
 H         -2.0299250348        0.0931526202        0.2041036712
 C         -1.5438334429        0.8312603256       -0.4155222926
 C         -0.2790297442        1.2873268593       -0.0747524549
 C          0.3407471736        2.2226562878       -0.8963215015
 C         -0.2981321420        2.6847725433       -2.0321689117
 C         -1.5709739674        2.2473346409       -2.3547421632
 C         -2.2005438384        1.3164738736       -1.5374606392
 N         -3.4884497882        0.8490411815       -1.8336829587
 S         -4.5830920513        0.5773596157       -0.5965870805
 O         -5.8788788451        0.6706434197       -1.2346487320
 O         -4.3572159256        1.4663644389        0.5184988418
 C         -4.3011365793       -1.1115455923       -0.1127609953
 C         -4.3164687679       -2.0849269846       -1.0917805642
 C         -4.1200907950       -3.4060165231       -0.7242332821
 C         -3.9153479927       -3.7301251968        0.6084381055
 C         -3.9067786804       -2.7417820456        1.5800591982
 C         -4.1024363334       -1.4184720132        1.2183375055
 H         -4.0978664508       -0.6180587745        1.9419847540
 H         -3.7442059922       -2.9952598343        2.6154484878
 H         -3.7596299244       -4.7587884837        0.8928752155
 H         -4.1249069528       -4.1788512616       -1.4759676957
 H         -4.4812900897       -1.7948573773       -2.1160603784
 H         -3.9243701518        1.2793973103       -2.6361331585
 H         -2.0747254870        2.6229753781       -3.2326344029
 H          0.1940236130        3.4065540551       -2.6667155603
 H          1.3237025780        2.5826927975       -0.6346177929
 C          0.3718988802        0.7870054758        1.1927882908
 H         -0.2656799819       -0.0136311955        1.5919932591
 C          0.4209197920        1.9081141021        2.2153365237
 C         -0.8657310521        2.3884024290        2.8144036060
 C          0.1068701834        1.6110945368        3.6489059337
 H          0.6591376549        2.1324692735        4.4164000086
 H         -0.1417170603        0.5915265509        3.9060255727
 H         -1.7801003731        1.9067927012        2.4985996388
 H         -0.9783912066        3.4444108536        3.0078104415
 H          1.1864986698        2.6443209951        2.0099479992
 O          3.0125781764        2.1260274635        0.8171695923
