  62
        -98.94031516
 C         -1.8601978377       -0.7632950367       -0.7295608652
 C         -3.2382926600       -1.0973375596       -0.7460574314
 C         -4.1733636723        0.0004749891       -0.4760971602
 C         -3.6983835067        1.2324572097       -0.2191186388
 C         -4.5231644315        2.4626092211        0.0462536547
 C         -4.9809048937        2.6062764625        1.5041018482
 C         -6.0802609898        1.6363258553        1.9388576490
 H         -6.4556348777        1.9877975714        2.9020404017
 H         -6.9077026154        1.6850608362        1.2302426684
 C         -5.6158195644        0.1810970277        2.0917368929
 H         -4.5253303519        0.1516161898        2.1528303518
 H         -5.9986828712       -0.2270979851        3.0298950417
 C         -6.0747168188       -0.7521254933        0.9711040385
 H         -7.1637259365       -0.8352751087        0.9864706762
 H         -5.6592440344       -1.7454053514        1.1600433227
 C         -5.6378111147       -0.3156929248       -0.4334527198
 H         -6.2229473912        0.5443023602       -0.7590441900
 H         -5.8203785910       -1.1448215588       -1.1216657712
 H         -5.3549913772        3.6250465560        1.6292375686
 H         -4.1126643031        2.4889684275        2.1568219767
 H         -3.8928934333        3.3193238590       -0.2018859914
 H         -5.3929683963        2.4691639864       -0.6113694391
 O         -2.3692351714        1.5089161448       -0.1881059434
 C         -1.4149799753        0.5221332646       -0.4168928039
 O         -0.2439546548        0.9256679920       -0.3128354729
 O         -3.6659362447       -2.2600284204       -0.9754265445
 C         -0.8630937095       -1.8762755878       -0.9972101599
 C          0.2398735422       -1.8467397435        0.0308328942
 C         -0.1031805401       -1.9600509688        1.3759493608
 C          0.8635793406       -1.9147365027        2.3611240791
 C          2.1998789773       -1.7729505386        2.0285925789
 C          2.5544414597       -1.6627809488        0.6912813725
 C          1.5781218833       -1.7017736211       -0.2982347585
 H          1.8715813649       -1.5941934368       -1.3307621325
 N          3.9145547639       -1.5488185351        0.3410518018
 S          4.8353742265       -0.2681081341        0.8970732521
 O          6.1830067245       -0.5462051261        0.4543709807
 O          4.6465401020       -0.1304940956        2.3183903272
 C          4.2259566823        1.1775871231        0.0464143040
 C          5.0353205086        1.7977651545       -0.8856734583
 C          4.5494905572        2.9020785120       -1.5663084972
 C          3.2641305061        3.3576038021       -1.3129950965
 C          2.4629760591        2.7208487038       -0.3779316005
 C          2.9462573690        1.6210316371        0.3127143497
 H          2.3310762272        1.1067009799        1.0331100751
 H          1.4528314620        3.0480483853       -0.1924895326
 H          2.8818282883        4.2124534261       -1.8487996490
 H          5.1698308483        3.3999664353       -2.2943569670
 H          6.0248675088        1.4042018645       -1.0536621174
 H          4.0845062778       -1.6693449648       -0.6478024725
 H          2.9650522988       -1.7241305030        2.7855996232
 H          0.5783141350       -1.9962388047        3.3994864462
 H         -1.1463323995       -2.0729730631        1.6400272793
 H         -1.4422624113       -2.8024152190       -0.8428556482
 C         -0.3532594107       -1.9218036119       -2.4302121402
 C         -1.1713018239       -1.3750850645       -3.5605612169
 C          0.0996023483       -0.6921060824       -3.1578125903
 H          0.9518761664       -0.7698926449       -3.8174859168
 H          0.0370168355        0.2488431116       -2.6342980123
 H         -1.1908842457       -1.9237756601       -4.4902505944
 H         -2.1091226579       -0.8977671912       -3.3164206308
 H          0.1919263933       -2.8382826207       -2.6359993096
