  62
        -98.93731291
 C         -2.3288281879        0.4256893159        0.3224824727
 C         -3.0664780169       -0.7720651678        0.1470133264
 C         -4.3214248206       -0.6381655444       -0.6091829622
 C         -4.6746587111        0.5493463112       -1.1305433741
 C         -5.9078638216        0.8301975187       -1.9453980342
 C         -7.1616746821        1.1039596174       -1.1033532910
 C         -7.7603859152       -0.1206915156       -0.4101309297
 H         -8.7454750858        0.1706925994       -0.0402329241
 H         -7.9096545210       -0.9145090524       -1.1426086442
 C         -6.9295764789       -0.6524752391        0.7661138053
 H         -6.2193919238        0.1137586153        1.0859397761
 H         -7.5871023109       -0.8524463767        1.6152618270
 C         -6.1656055812       -1.9433039553        0.4705920147
 H         -6.8740860905       -2.7522524807        0.2794945529
 H         -5.5838065032       -2.2076856016        1.3572976343
 C         -5.2004570146       -1.8476492329       -0.7181676911
 H         -4.5552544754       -2.7293113128       -0.7074460227
 H         -5.7571717444       -1.8314599842       -1.6546533080
 H         -6.9216378579        1.8646239602       -0.3566894361
 H         -7.9178866260        1.5221840243       -1.7716703587
 H         -5.6910405502        1.7203023597       -2.5399139062
 H         -6.0978860732       -0.0026054200       -2.6229469525
 O         -3.9108273515        1.6657780560       -0.9848800544
 C         -2.7448557271        1.6349203458       -0.2411605244
 O         -2.1668351292        2.7385323074       -0.1525180936
 H          1.1921645399        1.9733223480        0.8099665520
 C          1.2347694609        1.0545254220        0.2391905763
 C          0.1580309443        0.1805234290        0.2701188431
 C          0.2264398447       -0.9868859915       -0.4842061689
 C          1.3515921369       -1.2717913201       -1.2365775163
 C          2.4298212162       -0.4030626384       -1.2511683089
 C          2.3652639252        0.7690502915       -0.5118656428
 N          3.4863835010        1.6396008491       -0.5055649630
 S          4.6695869707        1.1494127244        0.5946750724
 O          4.0684977236        0.6427261670        1.8091239508
 O          5.5561002649        2.2815009758        0.7483035680
 C          5.5009260407       -0.1627817421       -0.2687862225
 C          5.2718509679       -1.4735581011        0.1003033545
 C          5.9060800201       -2.4859571384       -0.6026345333
 C          6.7521866957       -2.1705461781       -1.6550573260
 C          6.9731065473       -0.8481492619       -2.0111326701
 C          6.3413264064        0.1689086897       -1.3136219023
 H          6.4861194282        1.2096435327       -1.5514988667
 H          7.6329968882       -0.6077747634       -2.8290900904
 H          7.2431786358       -2.9608601530       -2.2007343177
 H          5.7353926680       -3.5145195783       -0.3282825458
 H          4.6038516001       -1.6711041910        0.9232397330
 H          3.2319399979        2.5948460294       -0.2904074253
 H          3.3078708540       -0.6171322389       -1.8383986731
 H          1.3909762414       -2.1816736838       -1.8156236493
 H         -0.6104216191       -1.6686960589       -0.4665381567
 C         -1.0400893808        0.4998470485        1.1244928562
 H         -0.9538737010        1.5564457270        1.4263812308
 C         -1.0827141945       -0.3212485400        2.4067140800
 C         -0.3301757997       -1.5969056981        2.6153285564
 C          0.1102876384       -0.3497927985        3.3171523105
 H         -0.0484712904       -0.2664259568        4.3818922807
 H          1.0190106329        0.1228111532        2.9708310660
 H         -0.8167983309       -2.3735542411        3.1851660510
 H          0.2834058760       -1.9688987526        1.8108228950
 H         -2.0544133696       -0.2576312292        2.8871361452
 O         -2.7166794582       -1.8970349854        0.5823851417
