  62
        -98.93656801
 C          1.4044842547        1.0105493782       -0.3001867085
 C          2.7579074975        1.4125471792       -0.3985426082
 C          3.7805541908        0.3476309506       -0.4118093686
 C          3.3792322802       -0.9323503327       -0.3047544562
 C          4.2266349683       -2.1764065153       -0.2662444140
 C          4.9152932745       -2.3823041774        1.0923111454
 C          5.5432492987       -1.1263453210        1.6905160602
 H          4.7739127388       -0.3605912223        1.8051837928
 H          5.9009685889       -1.3784185633        2.6924086086
 C          6.7200319379       -0.5503381015        0.9065037458
 H          7.1252918674        0.2787008588        1.4924425339
 H          7.5010470476       -1.3094689679        0.8230100057
 C          6.3994189597       -0.0268245591       -0.4952999034
 H          7.2568649715        0.5678986091       -0.8240225838
 H          6.3004256052       -0.8425576811       -1.2065108331
 C          5.1811870129        0.8883357390       -0.5710277660
 H          5.2840499543        1.6853372812        0.1744456154
 H          5.1911326903        1.4013932892       -1.5406263861
 H          4.1660299976       -2.7476336021        1.7986952166
 H          5.6778942993       -3.1547211910        0.9792667784
 H          3.5545414197       -3.0183282500       -0.4455682191
 H          4.9555789295       -2.1570723176       -1.0709604692
 O          2.0668902094       -1.2710693938       -0.1655236465
 C          1.0483899387       -0.3306369855       -0.1490027031
 O         -0.0844964074       -0.8172740894        0.0063773771
 O          3.1104372230        2.6215125177       -0.4672543877
 C          0.3407358178        2.0934234550       -0.3078050470
 C         -0.6730255343        1.8318251610        0.7755896050
 C         -0.2784082630        1.9449843890        2.1061250872
 C         -1.1662491668        1.6817595089        3.1308446856
 C         -2.4645824922        1.2941994183        2.8500649594
 C         -2.8688750320        1.1813440146        1.5252575864
 C         -1.9779405391        1.4578299102        0.4978095566
 H         -2.3140839324        1.3555546024       -0.5196202355
 N         -4.1840611298        0.8106210122        1.2164304602
 S         -4.5698021449       -0.0252786847       -0.1729637556
 O         -4.4710508572        0.8440703980       -1.3196187888
 O         -5.8947076870       -0.5462431231        0.0985102710
 C         -3.4292255640       -1.3866685057       -0.3217758523
 C         -2.8112085198       -1.6193222526       -1.5312031024
 C         -1.9669972844       -2.7097475718       -1.6544915995
 C         -1.7546827302       -3.5430338806       -0.5693993802
 C         -2.3838157807       -3.2959944468        0.6399109044
 C         -3.2325175773       -2.2100783068        0.7674541463
 H         -3.7371109338       -1.9976076945        1.6962828203
 H         -2.2083457580       -3.9424418781        1.4851689962
 H         -1.0868467055       -4.3850725598       -0.6643935422
 H         -1.4689120921       -2.8977656454       -2.5929136111
 H         -2.9930493829       -0.9391125422       -2.3481131899
 H         -4.7473191388        0.5195153136        2.0011226132
 H         -3.1591516562        1.0808039979        3.6481924441
 H         -0.8451551802        1.7715510316        4.1577472981
 H          0.7406686266        2.2337882177        2.3254806640
 H          0.8845264385        3.0189240450       -0.0546561416
 C         -0.2965565170        2.3212053618       -1.6702703915
 C          0.4915705223        2.1453279675       -2.9324760613
 C         -0.6190304054        1.1951898234       -2.6042964246
 H         -1.5355032860        1.2558026146       -3.1739822390
 H         -0.3668812130        0.1949776565       -2.2874940323
 H          0.3452406271        2.8551067345       -3.7327448621
 H          1.5085098323        1.7927546751       -2.8409174607
 H         -0.9987916098        3.1498115105       -1.6538681110
