  62
        -98.93727974
 C          2.4823683308        1.1824488440       -0.3399051236
 C          2.0601379005       -0.1007635387        0.0919207763
 C          3.0854344230       -0.9169032808        0.7607911164
 C          4.3174876628       -0.4212067576        0.9676347628
 C          5.4588156772       -1.1281526997        1.6468313932
 C          6.2531130746       -2.0613131606        0.7224980345
 C          5.5369344402       -3.3545809339        0.3310286922
 H          6.2819755049       -4.0056442538       -0.1305196929
 H          5.1786595451       -3.8563139797        1.2304745761
 C          4.3734271210       -3.1624801799       -0.6517129651
 H          4.4556785881       -2.1817090346       -1.1258164582
 H          4.4412482317       -3.9084802877       -1.4466758756
 C          2.9855870620       -3.2942625842       -0.0240997195
 H          2.8427013004       -4.3144673074        0.3388608902
 H          2.2386047633       -3.1057006464       -0.7994712982
 C          2.7220532652       -2.3226698111        1.1339861931
 H          3.2732935376       -2.6353849894        2.0206221082
 H          1.6533441939       -2.3392563865        1.3634009161
 H          7.1763366752       -2.3259465045        1.2430490750
 H          6.5271866449       -1.5089387043       -0.1793257163
 H          6.1323000155       -0.3498990183        2.0123773510
 H          5.0838488495       -1.6919815497        2.5015666266
 O          4.6691500922        0.8347907322        0.5841709807
 C          3.7723022039        1.6560215980       -0.0777814660
 O          4.2354759986        2.7759215212       -0.3733846379
 O          0.9027009796       -0.5665719234       -0.0688105074
 C          1.5513285213        2.1566844456       -1.0449263134
 C          0.2687854350        2.2812820378       -0.2617347835
 C          0.2506297385        3.0591877907        0.8916993857
 C         -0.8932606085        3.1503805313        1.6626233803
 C         -2.0383534005        2.4612440903        1.3038292056
 C         -2.0245719876        1.6719263058        0.1620954612
 C         -0.8802350633        1.5971831901       -0.6218911554
 H         -0.8716312290        0.9663332066       -1.4969568093
 N         -3.1808086846        0.9620035696       -0.2130627504
 S         -4.0727628061        0.2227031051        1.0159616434
 O         -4.9447374746        1.2131992237        1.5995620703
 O         -3.2006661397       -0.4665788350        1.9401247789
 C         -5.0339259065       -0.9465984846        0.0751616429
 C         -4.4738861049       -2.1738843535       -0.2269098763
 C         -5.2064304275       -3.0770507802       -0.9807813711
 C         -6.4781073153       -2.7385596189       -1.4194071601
 C         -7.0261063028       -1.5031639846       -1.1084939417
 C         -6.2991700510       -0.5953390775       -0.3545021029
 H         -6.6846004041        0.3733009628       -0.0821139382
 H         -8.0154900049       -1.2450180028       -1.4500338126
 H         -7.0453195817       -3.4441008605       -2.0057260257
 H         -4.7830035287       -4.0387600301       -1.2226039813
 H         -3.4851547741       -2.3990885265        0.1418285899
 H         -2.9842732478        0.3019937332       -0.9536851436
 H         -2.9324158200        2.5073735241        1.9049737235
 H         -0.8936904315        3.7573030513        2.5559069102
 H          1.1512475627        3.5821215919        1.1846160841
 H          2.0708754214        3.1268170506       -0.9969808792
 C          1.3227615400        1.8615012950       -2.5201431557
 C          2.4642799293        1.4195404666       -3.3856439934
 C          1.3351851246        0.4790567936       -3.0965316447
 H          0.6413960781        0.2554513100       -3.8940876845
 H          1.5110712927       -0.3479481818       -2.4275734551
 H          2.5517127640        1.8347422414       -4.3782331129
 H          3.4134208354        1.2451237739       -2.8993538247
 H          0.6250641716        2.5656524633       -2.9635082013
