  62
        -98.93583750
 C          2.4935959182        1.0086164568        0.5796845050
 C          2.6198444144       -0.2807777386        1.1584356263
 C          3.9090595865       -0.9555390589        0.9760817382
 C          4.8985979906       -0.3291226766        0.3143269500
 C          6.2836547550       -0.8653368734        0.0726339371
 C          6.3920583033       -1.7916721261       -1.1461321841
 C          5.7625188012       -3.1739782983       -0.9698861514
 H          6.0985214794       -3.7884935929       -1.8073733784
 H          6.1432301989       -3.6318621609       -0.0564819246
 C          4.2274722163       -3.1719149655       -0.9451247016
 H          3.8560816834       -2.2288609938       -1.3530997236
 H          3.8508330261       -3.9688450364       -1.5903044146
 C          3.6145444148       -3.3843172870        0.4394001077
 H          2.5266057907       -3.3253392854        0.3459365922
 H          3.8671336631       -4.3827589054        0.8035673955
 C          4.0543947937       -2.3559633683        1.4897640289
 H          5.0837850478       -2.5451196986        1.7940703463
 H          3.4051774068       -2.4582962160        2.3629902626
 H          5.9394344766       -1.2922496134       -2.0056914125
 H          7.4549800886       -1.9248069254       -1.3599959671
 H          6.6324979722       -1.3901759004        0.9624216308
 H          6.9264102447        0.0013873786       -0.0954380172
 O          4.7490377637        0.9149039138       -0.2075048541
 C          3.5445620814        1.6064135719       -0.1184099220
 O          3.5670758643        2.7117348820       -0.6880639203
 O          1.6959720334       -0.8372731008        1.8132173227
 C          1.1574142138        1.7049098563        0.7606680198
 C          0.2187381279        1.4081144841       -0.3817213718
 C          0.6314831531        1.5171392484       -1.7060387926
 C         -0.2492373875        1.2455661448       -2.7369566502
 C         -1.5516704307        0.8630267534       -2.4695670135
 C         -1.9778913050        0.7598847596       -1.1500049076
 C         -1.0895164556        1.0287974942       -0.1174161027
 H         -1.4241088885        0.9211743519        0.9033552039
 N         -3.3120773658        0.4284142532       -0.8611282847
 S         -3.6764352935       -0.4769126845        0.5162669733
 O         -3.5765596485        0.3781071147        1.6719798388
 O         -2.8932519012       -1.6917702467        0.5386795558
 C         -5.3904304637       -0.8469497828        0.1942947372
 C         -6.3236700362        0.1566481271        0.3753736297
 C         -7.6561548576       -0.1115923000        0.1063121069
 C         -8.0317021576       -1.3716821353       -0.3358966085
 C         -7.0843854915       -2.3690984529       -0.5105250751
 C         -5.7492417574       -2.1069259713       -0.2449072310
 H         -4.9787886019       -2.8526031504       -0.3589163346
 H         -7.3796797321       -3.3485010478       -0.8509406452
 H         -9.0698048326       -1.5784538584       -0.5428789389
 H         -8.3959406185        0.6605114572        0.2432054916
 H         -5.9866184292        1.1165933525        0.7299882777
 H         -3.8063727010        0.0723242873       -1.6683675166
 H         -2.2357120611        0.6499682776       -3.2769025249
 H          0.0835529929        1.3301454622       -3.7606207036
 H          1.6452550034        1.8231712427       -1.9161905299
 H          0.7219481948        1.2440769081        1.6629357554
 C          1.2872728947        3.1974831953        1.0348291416
 C          0.8706452878        4.2553749752        0.0621729226
 C          0.0598260637        4.0188244825        1.2986167237
 H          0.0901735146        4.7530189691        2.0894075691
 H         -0.8966466119        3.5294071910        1.1867017064
 H          1.4812432082        5.1428921858       -0.0000938775
 H          0.4608629618        3.9429678403       -0.8851558631
 H          2.1603332904        3.4200240098        1.6401972184
