  62
        -98.93821044
 C         -1.5836156537       -1.1106635841        0.0848170042
 C         -2.6298222146       -0.8113352319        0.9877853301
 C         -3.3834216989        0.4238180625        0.7219604846
 C         -3.0232154251        1.2002385622       -0.3163509162
 C         -3.7367555286        2.4452325308       -0.7613780208
 C         -5.0149776597        2.0683850576       -1.5375481472
 C         -6.3159891549        2.4849364367       -0.8512318700
 H         -6.4554731334        3.5607522726       -0.9769741608
 H         -7.1349108812        1.9837877166       -1.3716710482
 C         -6.4119599008        2.1729233758        0.6454186453
 H         -5.8648591476        2.9268401999        1.2137251441
 H         -7.4626751245        2.2758253628        0.9248297306
 C         -5.9225945297        0.7837189720        1.0748017608
 H         -6.5963310084        0.4107526598        1.8489665777
 H         -5.9770180391        0.0820064616        0.2421453424
 C         -4.5017952878        0.7605130988        1.6690182726
 H         -4.2943174207        1.7176829725        2.1562985746
 H         -4.4583469569       -0.0149290986        2.4398835258
 H         -4.9888227753        2.5279170265       -2.5266859984
 H         -5.0148743967        0.9874987471       -1.6931119446
 H         -3.9803759846        3.0597779043        0.1026033782
 H         -3.0528719022        3.0012443207       -1.4030904641
 O         -1.9907183549        0.8949208358       -1.1442696611
 C         -1.2513411734       -0.2703959408       -0.9779388068
 O         -0.3467847117       -0.4268747878       -1.8157474755
 O         -2.9167232189       -1.5405610357        1.9765951720
 C         -0.7759530761       -2.3786773592        0.2865163360
 C          0.6926834959       -2.0699406072        0.4497238008
 C          1.6949430586       -2.8804817742       -0.0691292113
 C          3.0285037564       -2.5575941407        0.1154160667
 C          3.3940980846       -1.4191826270        0.8092239101
 C          2.3996633180       -0.5989885809        1.3270362372
 C          1.0655483258       -0.9349843189        1.1581787743
 H          0.2973344507       -0.2928427542        1.5718607821
 N          2.7570591317        0.5803511192        2.0028989866
 S          3.9421295654        1.5370815762        1.3049026411
 O          5.2397214035        1.0783988236        1.7367895500
 O          3.6029779446        2.8924780626        1.6815264672
 C          3.7888114764        1.3127824197       -0.4589035948
 C          2.5539380726        1.4991295283       -1.0470825770
 C          2.4213754124        1.2960352442       -2.4104830130
 C          3.5254447005        0.9222150944       -3.1610870500
 C          4.7625383062        0.7519637992       -2.5590900135
 C          4.8972804697        0.9428477663       -1.1935064361
 H          5.8357576408        0.8061915762       -0.6810116272
 H          5.6185922797        0.4622101961       -3.1469603054
 H          3.4161255686        0.7597058942       -4.2216935935
 H          1.4505418223        1.4012720749       -2.8671344693
 H          1.7054378099        1.7853791175       -0.4453509347
 H          1.9679902555        1.1386001341        2.2937079797
 H          4.4274454440       -1.1513299490        0.9597407658
 H          3.7946725365       -3.1985618538       -0.2925279867
 H          1.4312970909       -3.7667807163       -0.6221344450
 H         -1.1404681619       -2.8106039616        1.2311189470
 C         -1.0567289095       -3.3583686489       -0.8353840006
 C         -1.0498336752       -4.8348650085       -0.5781336362
 C         -2.3456242355       -4.1225630620       -0.8195643759
 H         -2.8613285724       -4.2857330619       -1.7540167643
 H         -3.0060126675       -3.9608758810        0.0201445444
 H         -0.6770646273       -5.4910430013       -1.3501778407
 H         -0.8368292926       -5.1679948788        0.4264235350
 H         -0.6978557725       -3.0020954201       -1.7944853685
