  62
        -98.93822641
 C         -2.8321755693       -0.2290225900       -0.1096127385
 C         -2.2718440095        0.6409097593       -1.0770050491
 C         -2.2228683792        2.0625290095       -0.7060948700
 C         -2.6599783287        2.4617302903        0.5005994599
 C         -2.6756888684        3.8741544206        1.0178433990
 C         -1.3332423582        4.3362405208        1.6006693683
 C         -0.2413690785        4.6302774501        0.5713369878
 H         -0.6368317786        5.2943131296       -0.1982183425
 H          0.5503110218        5.1703830803        1.0943962072
 C          0.3707377812        3.3847517996       -0.0844852016
 H          0.1654345813        2.5020603800        0.5275368990
 H          1.4579371712        3.4954439394       -0.1116602120
 C         -0.0946245893        3.1249099988       -1.5179614713
 H          0.3469047305        2.1832204785       -1.8551868809
 H          0.2697022406        3.9219240983       -2.1705933019
 C         -1.6151849393        3.0189436589       -1.6885257708
 H         -2.0730634192        4.0028211990       -1.5899838412
 H         -1.8183767297        2.6355925183       -2.6917935805
 H         -1.5225907979        5.2501607012        2.1687620078
 H         -0.9753935281        3.5768941112        2.3005600587
 H         -2.9827656086        4.5542124402        0.2225273887
 H         -3.4254152082        3.9050030312        1.8113510292
 O         -3.1731352486        1.5933808809        1.4124911405
 C         -3.2535983488        0.2399314608        1.1381528714
 O         -3.7290442786       -0.4417384686        2.0691804420
 O         -1.8291519598        0.2761568286       -2.1977287491
 C         -2.9384746895       -1.7359787801       -0.2984416575
 C         -1.6582566294       -2.3707145500        0.1805136325
 C         -1.6483321293       -3.3630345394        1.1521948631
 C         -0.4507767692       -3.8623710693        1.6374942830
 C          0.7583232707       -3.3768580297        1.1714691924
 C          0.7547192606       -2.3919873503        0.1935389418
 C         -0.4425473095       -1.9052944704       -0.3018857082
 H         -0.4350777697       -1.1336259309       -1.0582742686
 N          1.9868848805       -1.8432740607       -0.2549498089
 S          2.5930804810       -0.7621658301        0.9048818702
 O          3.0421454712       -1.5343583995        2.0354305205
 O          1.6139528512        0.2660606002        1.1856201199
 C          3.9883970008       -0.0740619008        0.0363272094
 C          3.7976358407        1.0500204188       -0.7440595213
 C          4.8705679905        1.5618050182       -1.4564878419
 C          6.1078567305        0.9399197281       -1.3798897419
 C          6.2827931306       -0.1892215415       -0.5937647513
 C          5.2139714007       -0.7055312209        0.1216013494
 H          5.3019077608       -1.5763366205        0.7497052799
 H          7.2466693205       -0.6685040515       -0.5366809713
 H          6.9410166504        1.3397527676       -1.9359653424
 H          4.7360802305        2.4399184078       -2.0674439224
 H          2.8195786607        1.5052495489       -0.7672310812
 H          1.8368015903       -1.3122342512       -1.1057240592
 H          1.6977237108       -3.7261267896        1.5676317623
 H         -0.4597645190       -4.6271236888        2.3993628435
 H         -2.5866588292       -3.7221070291        1.5495032336
 H         -3.7438595993       -2.0583051096        0.3801172429
 C         -3.3354170900       -2.1453783009       -1.7094816471
 C         -2.4305300604       -2.8901353216       -2.6405125870
 C         -3.5952212903       -3.5914252811       -2.0136587962
 H         -4.4434236305       -3.8473214514       -2.6300499458
 H         -3.3838594801       -4.3055525406       -1.2317941558
 H         -2.4764489207       -2.6363284522       -3.6884759471
 H         -1.4398609803       -3.1452802115       -2.2982538371
 H         -4.0046096100       -1.4245461211       -2.1669835974
