  62
        -98.93843277
 C         -1.7751605495       -0.2077065197        0.1272780900
 C         -2.8768950493       -0.8308666492        0.7558634907
 C         -4.1971433795       -0.1962870399        0.5761458898
 C         -4.2754106099        0.9374845091       -0.1452672217
 C         -5.5042225001        1.7333147982       -0.4962488829
 C         -6.3333215698        1.0772854864       -1.6127764220
 C         -6.5190281293       -0.4316537635       -1.4745159200
 H         -7.0188312391       -0.7885690549       -2.3789793396
 H         -5.5390522192       -0.9108833331       -1.4364506693
 C         -7.3506589792       -0.8786399721       -0.2746214795
 H         -7.4672152189       -1.9630316823       -0.3469226080
 H         -8.3455784494       -0.4329134326       -0.3430574601
 C         -6.7678141794       -0.5542059701        1.1022284901
 H         -6.9133823998        0.4933075602        1.3518114187
 H         -7.3355335393       -1.1301730893        1.8389529609
 C         -5.3034674393       -0.9418056393        1.2834764207
 H         -5.0594162894       -0.8881551878        2.3514058807
 H         -5.1760428789       -1.9959656597        1.0124545822
 H         -5.8257118298        1.2635031153       -2.5624958823
 H         -7.3087913900        1.5651089260       -1.6507224028
 H         -6.1086080002        1.8985307192        0.3906331769
 H         -5.1566050804        2.7071698278       -0.8480882942
 O         -3.1802144900        1.5142440687       -0.7186226525
 C         -1.9138325598        0.9695173693       -0.6064872916
 O         -1.0226749500        1.6148458288       -1.1908483325
 H          1.9279589404        0.3559773005       -0.6723644206
 C          1.6661701502        0.6483091217        0.3302785490
 C          0.5295343904        0.1436277622        0.9407042796
 C          0.2145880101        0.5721139538        2.2289868490
 C          1.0074271898        1.4951621950        2.8807488978
 C          2.1372039696        2.0057089745        2.2649883172
 C          2.4614855699        1.5835624629        0.9813715378
 N          3.5925522897        2.0962458824        0.3384535772
 S          4.4090610201        1.2751975511       -0.8517283717
 O          5.7071308499        1.9166762815       -0.8921267825
 O          3.6727969801        1.2816172591       -2.0910147117
 C          4.5983517906       -0.4034894081       -0.2731069994
 C          4.8566240306       -0.6450706662        1.0615195509
 C          5.0365822210       -1.9527811056        1.4830271427
 C          4.9659820114       -2.9918589068        0.5681630541
 C          4.7145292614       -2.7331365587       -0.7698554063
 C          4.5275697610       -1.4276106994       -1.1953970180
 H          4.3221235310       -1.1801675008       -2.2248090284
 H          4.6609311517       -3.5416048097       -1.4813237152
 H          5.1077157418       -4.0085586763        0.8989911255
 H          5.2315126610       -2.1564041941        2.5236345730
 H          4.9118157503        0.1775031248        1.7552694198
 H          4.1869270295        2.6962716933        0.8886779064
 H          2.7546114894        2.7350088654        2.7667557062
 H          0.7474781996        1.8212143262        3.8764962074
 H         -0.6718000098        0.1761408641        2.7054307395
 C         -0.3988484393       -0.8348976991        0.2681169509
 H         -0.5397637490       -1.6933434782        0.9409086120
 C          0.0967937310       -1.3418320807       -1.0684309084
 C          1.1153305313       -2.4395347004       -1.1195754369
 C         -0.3037634785       -2.7152861914       -1.5139892566
 H         -0.5295610184       -2.8731730829       -2.5579829164
 H         -0.9203791384       -3.2935768207       -0.8415360258
 H          1.8652812714       -2.4052058112       -1.8945293469
 H          1.4708142914       -2.8354500190       -0.1804422163
 H          0.1435680707       -0.5652759117       -1.8243054795
 O         -2.7697044990       -1.8833549883        1.4419390622
