  62
        -98.93320692
 C         -1.9272253781        1.2663290690        0.4712246749
 C         -2.9474935723        1.3169175725       -0.5115896479
 C         -4.1595148795        0.5153500788       -0.2733885992
 C         -4.2377737165       -0.2364210816        0.8399101177
 C         -5.3432898673       -1.1249941582        1.3718174884
 C         -6.5299432625       -1.5052093096        0.4905777052
 C         -6.1893478446       -2.4422724947       -0.6682469709
 H         -7.0781628872       -2.5512871986       -1.2934021216
 H         -5.9485973041       -3.4262302758       -0.2577593963
 C         -5.0153065434       -2.0111642581       -1.5437567059
 H         -4.8674492860       -2.7799801103       -2.3071704340
 H         -4.1033116767       -1.9757641604       -0.9439215871
 C         -5.1906885535       -0.6735929780       -2.2595084864
 H         -6.1131117130       -0.6875922901       -2.8433734647
 H         -4.3549481867       -0.5606143350       -2.9553349106
 C         -5.2056032331        0.5660956135       -1.3497741260
 H         -6.1912468464        0.7287479888       -0.9203888339
 H         -4.9667139614        1.4384692231       -1.9650200571
 H         -7.0287230961       -0.6114979351        0.1273815709
 H         -7.2430008409       -2.0253804458        1.1360122447
 H         -5.7232939335       -0.6182626360        2.2658508351
 H         -4.8503458173       -2.0370376163        1.7239227198
 O         -3.2290794401       -0.2591936201        1.7582103258
 C         -2.0552583701        0.4727071783        1.6103200412
 O         -1.2579280881        0.3195502944        2.5520002316
 O         -2.8547558315        2.0255268525       -1.5500151888
 C         -0.6913478728        2.1034703274        0.1932347766
 C          0.3025089037        1.3254665718       -0.6317696625
 C          0.8000547616        1.8615385192       -1.8150956302
 C          1.6916023673        1.1499206071       -2.5973327898
 C          2.1233309559       -0.1014838562       -2.1976267019
 C          1.6372601818       -0.6444970457       -1.0140658130
 C          0.7222958782        0.0592502446       -0.2442906691
 H          0.3442713925       -0.3850681291        0.6642268279
 N          2.0888205598       -1.9044892044       -0.5546836439
 S          3.1546490241       -1.8320348311        0.7386004922
 O          3.6056943029       -3.1901772941        0.9467622135
 O          2.5238663955       -1.1741789242        1.8507049844
 C          4.5029748777       -0.8373109948        0.1207123335
 C          5.5847366528       -1.4636791725       -0.4670616348
 C          6.5919449485       -0.6870729652       -1.0171942818
 C          6.4940452262        0.6957568464       -0.9813056664
 C          5.4003341607        1.3094841282       -0.3900407389
 C          4.3921770504        0.5383710028        0.1668269936
 H          3.5307610444        0.9802720786        0.6412325890
 H          5.3245554792        2.3844723903       -0.3606943612
 H          7.2753796679        1.2998324779       -1.4146613311
 H          7.4456257318       -1.1615549730       -1.4737490305
 H          5.6194505080       -2.5412786056       -0.4686719403
 H          2.5057868338       -2.4684921677       -1.2837008809
 H          2.8261544895       -0.6602442208       -2.7975670918
 H          2.0589139357        1.5751345313       -3.5183506590
 H          0.4639254455        2.8386400278       -2.1289310994
 H         -1.0548876505        2.9293113338       -0.4401684604
 C         -0.0755171014        2.7407498049        1.4288356596
 C          1.1004248005        2.1854450879        2.1678298857
 C          1.2603596211        3.4194655314        1.3343841704
 H          1.3977403275        4.3656582817        1.8353376581
 H          1.7950295015        3.3291932163        0.4003895819
 H          1.0953159667        2.2803537626        3.2434870354
 H          1.5322633054        1.2533995600        1.8386586426
 H         -0.8302739970        3.2277054327        2.0392874735
