  62
        -98.94461342
 C          1.9877248246        1.3274408582        0.3756381572
 C          2.7214900761        0.8638986898       -0.7432835793
 C          3.9193995513        0.0677022635       -0.4366865476
 C          4.2354452262       -0.1851744793        0.8463084812
 C          5.3949829982       -1.0257401548        1.2949425996
 C          4.9868315460       -2.4967711347        1.4568241965
 C          4.2249196647       -3.0626844948        0.2581892508
 H          4.0150786566       -4.1130392805        0.4723453992
 H          3.2609888997       -2.5548242035        0.1737654537
 C          4.9721671206       -2.9530658740       -1.0782795239
 H          6.0341900265       -2.7843881181       -0.8961162483
 H          4.8809414852       -3.9033518146       -1.6085545160
 C          4.4398655082       -1.8673567102       -2.0154836203
 H          3.3578761836       -1.9769359301       -2.1269703854
 H          4.8867592117       -2.0210063527       -3.0013143947
 C          4.7374220381       -0.4216103976       -1.5983649164
 H          5.8041751286       -0.3095722800       -1.3941870773
 H          4.4775879703        0.2258112732       -2.4409531541
 H          5.8879034780       -3.0882264116        1.6288559686
 H          4.3494771884       -2.5848682706        2.3398601245
 H          6.2009655638       -0.9396668455        0.5689121343
 H          5.7428951296       -0.6467926397        2.2574175961
 O          3.4937095888        0.2595111836        1.8932242066
 C          2.3490688448        1.0113538732        1.6849741804
 O          1.7448208341        1.3290131114        2.7306381079
 H         -0.2158643955       -0.1642782885        0.9940216527
 C         -0.6785914365        0.1233540399        0.0574882020
 C         -0.3082152730        1.3260815176       -0.5338288715
 C         -0.9181925877        1.6944726423       -1.7244643793
 C         -1.8494514229        0.8603879649       -2.3210639967
 C         -2.2014999845       -0.3432726771       -1.7402203300
 C         -1.6134025567       -0.7102388571       -0.5352447403
 N         -1.9865252598       -1.9180874844        0.0786381616
 S         -3.6204652199       -2.2762093393        0.1554224844
 O         -3.7733593304       -3.0994707849        1.3346947693
 O         -4.0428288826       -2.8744684677       -1.0866046797
 C         -4.4378073835       -0.7049885998        0.3748427119
 C         -4.1216190172        0.0439448470        1.4911087616
 C         -4.7215810596        1.2811008952        1.6597765436
 C         -5.6229212433        1.7461028993        0.7141347190
 C         -5.9344408911        0.9796688483       -0.3978485587
 C         -5.3359162893       -0.2578195661       -0.5726549675
 H         -5.5465201098       -0.8849275369       -1.4235419990
 H         -6.6369161229        1.3429808439       -1.1303857129
 H         -6.0847687665        2.7116012146        0.8470456844
 H         -4.4801638164        1.8779315457        2.5247835651
 H         -3.4195787789       -0.3461294735        2.2110129155
 H         -1.5321987074       -2.0863644227        0.9638701844
 H         -2.9125476270       -1.0096608432       -2.2009626490
 H         -2.3050925015        1.1514582692       -3.2549698502
 H         -0.6554561647        2.6273755567       -2.1942106768
 C          0.7322040489        2.1596226394        0.1748504759
 H          0.3546794037        2.3815653222        1.1834295556
 C          1.0563262009        3.4638329208       -0.5208406015
 C          0.1596147088        4.6502291782       -0.3384718101
 C          1.5135632472        4.6283727442        0.3032064255
 H          2.2860710080        5.2692949462       -0.0944577968
 H          1.5731997632        4.4877187594        1.3729281077
 H          0.0021709235        5.3118155681       -1.1766375021
 H         -0.7039186533        4.5301771308        0.2978729040
 H          1.5289372870        3.3194408864       -1.4849094128
 O          2.3996833658        1.1010350551       -1.9358578530
