  62
        -98.94458218
 C         -1.5821583072       -1.4678678895        0.1839598617
 C         -1.7836664642       -0.4098598304        1.1095219190
 C         -3.0302867733        0.3504954553        0.9725706880
 C         -3.8863891673        0.0473975922       -0.0204902740
 C         -5.2317400020        0.6789919263       -0.2589517990
 C         -5.1896112656        2.0039858120       -1.0320812220
 C         -4.6534400468        3.1988178488       -0.2430248820
 H         -4.8811615170        4.0957286720       -0.8222071056
 H         -5.1893115160        3.2780939914        0.7033142560
 C         -3.1420876050        3.1487878569        0.0193900243
 H         -2.6987319464        4.1202230801       -0.2102751522
 H         -2.6889016608        2.4166347763       -0.6532623218
 C         -2.7610306724        2.8049598933        1.4592378572
 H         -3.1234172504        3.5872019284        2.1299759084
 H         -1.6708825508        2.7797232720        1.5368427723
 C         -3.3019214192        1.4555301092        1.9493158643
 H         -2.7948117883        1.2027074953        2.8840230289
 H         -4.3723119834        1.5295197584        2.1435925925
 H         -6.2120699437        2.2301609183       -1.3429735157
 H         -4.5913237868        1.8639275474       -1.9350794992
 H         -5.7337807115        0.8324540874        0.6971708437
 H         -5.8098931900       -0.0408467631       -0.8423665774
 O         -3.6265391022       -0.9267318203       -0.9290018463
 C         -2.4825767477       -1.7107319429       -0.8546491275
 O         -2.4099973182       -2.5618167639       -1.7613896298
 O         -0.9661922743       -0.1317356259        2.0284815095
 C         -0.3567677780       -2.3393425216        0.4028922050
 C          0.7959415420       -1.9519965395       -0.4915007678
 C          0.7366062899       -2.1053746838       -1.8730512013
 C          1.8208205795       -1.7635286745       -2.6600642299
 C          2.9734876400       -1.2478470340       -2.0922366790
 C          3.0387730379       -1.0819871815       -0.7148514486
 C          1.9564377400       -1.4453499454        0.0750594487
 H          2.0253171717       -1.3124529448        1.1443931584
 N          4.1875399747       -0.5490575431       -0.1007879166
 S          3.9816300357        0.7392948186        0.9538297859
 O          5.2947873373        1.3373586246        1.0583375011
 O          3.3954402491        0.2807137742        2.1854808643
 C          2.8838596754        1.8282361876        0.0670083591
 C          1.5168740802        1.7314100441        0.2318705946
 C          0.6968044954        2.5104393798       -0.5698373112
 C          1.2469453675        3.3697140411       -1.5072896815
 C          2.6230049450        3.4631365087       -1.6512694710
 C          3.4492091686        2.6789172037       -0.8642256585
 H          4.5238383457        2.7195631704       -0.9413199415
 H          3.0502282716        4.1366087402       -2.3765671588
 H          0.5977656739        3.9690027519       -2.1259629183
 H         -0.3724725014        2.4316385140       -0.4564643307
 H          1.1030056860        1.0649441580        0.9728795468
 H          4.9404728640       -0.3520585128       -0.7453552275
 H          3.8164479398       -0.9770228159       -2.7096400479
 H          1.7655052795       -1.8924142904       -3.7303387017
 H         -0.1689601851       -2.4855968607       -2.3200603749
 H         -0.0470255530       -2.1356657320        1.4377207240
 C         -0.6509112592       -3.8224023648        0.2794495034
 C          0.2711653562       -4.7996591732        0.9417469242
 C         -1.1084134344       -4.5825070909        1.4860760152
 H         -1.8452696679       -5.3607693709        1.3555799360
 H         -1.2106347841       -4.0366443359        2.4130472923
 H          0.4845788370       -5.7295343213        0.4375413360
 H          1.1050915333       -4.4006771160        1.5000570441
 H         -1.0799008527       -4.1004442426       -0.6740388868
