  62
        -98.94027454
 C         -1.8253859507       -0.7693592412       -0.8467016588
 C         -2.0944431211       -0.3323966097        0.4740640906
 C         -3.5168773111       -0.2471572193        0.8369016302
 C         -4.4615388309       -0.6257717902       -0.0418270296
 C         -5.9475582510       -0.6219331000        0.1942531900
 C         -6.6160499009        0.7376571298       -0.0511852417
 C         -6.3301735812        1.8032110109        1.0077398172
 H         -7.0268000811        2.6251048407        0.8307748361
 H         -6.5491302414        1.3985698421        1.9964022476
 C         -4.8979995612        2.3551443509        0.9801463069
 H         -4.9265932012        3.4448544410        1.0489733257
 H         -4.4310052109        2.1077815298        0.0240295673
 C         -4.0027397115        1.8528349122        2.1129973477
 H         -3.0053671914        2.2780757020        1.9757171375
 H         -4.3905581017        2.2071519733        3.0705845772
 C         -3.8624114315        0.3262196222        2.1780397895
 H         -3.0451824717        0.0842872030        2.8619588599
 H         -4.7810169216       -0.1202493273        2.5582095497
 H         -6.3079992307        1.1064674386       -1.0323731720
 H         -7.6948567709        0.5685790997       -0.0842650118
 H         -6.1578789412       -0.9539596488        1.2113821003
 H         -6.3742466308       -1.3462402508       -0.5030696493
 O         -4.1586219006       -1.0959324716       -1.2817562490
 C         -2.8447639805       -1.1680300621       -1.7151307586
 O         -2.7135983802       -1.6116029534       -2.8738721181
 O         -1.2094359013       -0.0305738787        1.3144313005
 C         -0.4051071506       -0.8978554017       -1.3685467783
 C          0.4674927292       -1.5864571306       -0.3473931273
 C          0.0565442690       -2.8157216700        0.1638686540
 C          0.8212400788       -3.4848718890        1.0979862249
 C          2.0302521987       -2.9592206985        1.5210093346
 C          2.4565068488       -1.7425147091        1.0072675434
 C          1.6725879290       -1.0599346701        0.0870464424
 H          2.0130380291       -0.1049603005       -0.2746657786
 N          3.6775176587       -1.1743098186        1.4053421730
 S          4.6871056690       -0.5440034500        0.2272928326
 O          4.5521114593       -1.2573522914       -1.0219324266
 O          6.0048583589       -0.5576167793        0.8268781629
 C          4.1686799691        1.1468345898        0.0263255706
 C          3.9879452688        1.9243740411        1.1528632496
 C          3.6204229388        3.2512177109        0.9970546881
 C          3.4473840191        3.7771379695       -0.2744083226
 C          3.6364160394        2.9839259882       -1.3959734216
 C          4.0014658994        1.6551777584       -1.2465967101
 H          4.1502824796        0.9997878674       -2.0901928993
 H          3.4991984597        3.3933948871       -2.3843173421
 H          3.1604427792        4.8102293993       -0.3927708038
 H          3.4689482086        3.8710559919        1.8659873973
 H          4.1325254285        1.4822499522        2.1243101302
 H          4.1946257985       -1.7167966579        2.0821103338
 H          2.6345501785       -3.4851392377        2.2448981854
 H          0.4809267987       -4.4301548885        1.4939697459
 H         -0.8826062109       -3.2336241404       -0.1744474858
 H         -0.4831685904       -1.5704326927       -2.2397272176
 C          0.1882598895        0.4070994377       -1.8805914796
 C         -0.6890490403        1.5238667071       -2.3600006311
 C          0.1002976894        1.6813263686       -1.0970951111
 H          0.9522859394        2.3454193385       -1.1026320216
 H         -0.4207180509        1.6463897096       -0.1540210112
 H         -0.3808778701        2.0755061262       -3.2353458016
 H         -1.7583795804        1.3876903072       -2.2852271412
 H          1.1027152397        0.2417448870       -2.4432091592
