  62
        -98.93686018
 C          2.2756314650        0.6434643611       -0.0126743026
 C          3.1858330513        0.2074605602        0.9864421092
 C          4.1034014817       -0.8844162908        0.6262972725
 C          4.0374680763       -1.4156937994       -0.6060117457
 C          4.8372617947       -2.5560000385       -1.1843718732
 C          6.3405563097       -2.5930143948       -0.8778783626
 C          7.0107004423       -1.2172353768       -0.7496314544
 H          7.8948573206       -1.1922996497       -1.3893908616
 H          6.3335593816       -0.4364094998       -1.1003123729
 C          7.4569033965       -0.9015487968        0.6800641924
 H          8.2234604688       -0.1236571600        0.6446335427
 H          7.9176506673       -1.7945060237        1.1080746612
 C          6.3556122656       -0.4085898293        1.6179881081
 H          6.7786078308       -0.3331505970        2.6225911519
 H          6.0434941279        0.5977770974        1.3260611384
 C          5.0951616531       -1.2867949695        1.6796758894
 H          5.3465250377       -2.3424669003        1.6129386701
 H          4.6054890013       -1.1046248690        2.6400306267
 H          6.8128625509       -3.1540927140       -1.6860500511
 H          6.5121843407       -3.1577819288        0.0373446794
 H          4.3811345667       -3.4931831998       -0.8522078561
 H          4.6852024846       -2.4899694440       -2.2644630448
 O          3.1480197275       -0.9704984716       -1.5357318681
 C          2.2556349216        0.0580213378       -1.2771335704
 O          1.5256659815        0.3296480113       -2.2533942368
 H         -0.4220109383        0.5007152826       -1.2375117021
 C         -0.8248331919        0.6641499035       -0.2487630704
 C         -0.0421355539        1.2942778961        0.7082697152
 C         -0.5746072528        1.4896412065        1.9772596976
 C         -1.8568890098        1.0636599888        2.2766871504
 C         -2.6314855006        0.4312668336        1.3209084563
 C         -2.1077151460        0.2284114983        0.0507365011
 N         -2.8750762979       -0.4362585316       -0.9224628280
 S         -4.4277793924        0.1261243814       -1.2241911551
 O         -4.7334461832       -0.2988361965       -2.5727416986
 O         -4.5408014819        1.5411776903       -0.9549997974
 C         -5.4429115921       -0.7926637545       -0.0853537126
 C         -6.2771523794       -0.1240961113        0.7890896119
 C         -7.0667973612       -0.8614884455        1.6578127935
 C         -7.0090360581       -2.2465327324        1.6361082842
 C         -6.1674891527       -2.9028780749        0.7500441131
 C         -5.3765501274       -2.1717778927       -0.1217239003
 H         -4.7119221598       -2.6423127991       -0.8271413874
 H         -6.1249190288       -3.9800998041        0.7360673318
 H         -7.6235331162       -2.8183363454        2.3134384421
 H         -7.7218047537       -0.3532724760        2.3470927168
 H         -6.2842616416        0.9541229092        0.7737590562
 H         -2.3759370453       -0.5836263683       -1.7883229202
 H         -3.6299721063        0.0951666686        1.5483298953
 H         -2.2572575898        1.2231389844        3.2661518121
 H          0.0281898567        1.9712256556        2.7333142719
 C          1.3461105282        1.7833857643        0.3683868233
 H          1.7806748050        2.2097296072        1.2825904923
 C          1.2789858634        2.8754515861       -0.6824141866
 C          0.8531533381        4.2525929597       -0.2746117016
 C          2.2798823272        3.9894019420       -0.6508148535
 H          2.6490887433        4.3763007649       -1.5887638672
 H          3.0196181246        3.9739921696        0.1363891580
 H          0.6264778491        4.4175593672        0.7677528924
 H          0.2367309817        4.8221761889       -0.9531683824
 H          0.9642257264        2.5191212868       -1.6549267215
 O          3.2272834474        0.7121812141        2.1394230772
