  62
        -98.94006922
 C          1.7201997787        1.0989076210        0.3004336044
 C          2.0477361692       -0.0181547294       -0.5071689080
 C          3.4632519773       -0.1318574391       -0.8982157534
 C          4.3462591035        0.7910702009       -0.4781275031
 C          5.8196952765        0.7648041730       -0.7617216979
 C          6.5847621361        0.0224036362        0.3428134087
 C          5.9868111492       -1.3381647958        0.7010388479
 H          6.6254450308       -1.7824423538        1.4675688128
 H          5.0021779022       -1.1888080696        1.1501107236
 C          5.8594844422       -2.3073808111       -0.4825215247
 H          6.2100714328       -3.2925744801       -0.1678555299
 H          6.5031126355       -1.9808237510       -1.3002010866
 C          4.4324629504       -2.4890013572       -1.0035726539
 H          4.4243520516       -3.3466303113       -1.6817835934
 H          3.7638073768       -2.7251778024       -0.1716358998
 C          3.8438998722       -1.2966311359       -1.7682524660
 H          4.5364565559       -0.9835369048       -2.5525066301
 H          2.9167499687       -1.6327863069       -2.2424906323
 H          7.6191271897       -0.1066045176        0.0191594224
 H          6.5845113867        0.6435130978        1.2414650529
 H          6.1787013182        1.7942209007       -0.8109466276
 H          5.9906209442        0.2844821827       -1.7231555099
 O          3.9978510445        1.8401251729        0.3095346280
 C          2.6892437717        2.0090955967        0.7317404851
 O          2.5179122474        2.9897203810        1.4823435135
 O          1.2178041333       -0.8835735220       -0.8883971730
 C          0.3029617056        1.3435227628        0.7903257502
 C         -0.3208927050        0.0510922565        1.2554788618
 C          0.2664582824       -0.6276460776        2.3202748157
 C         -0.2670691425       -1.8160008496        2.7787842026
 C         -1.4097910374       -2.3409172912        2.2015760967
 C         -2.0106346533       -1.6659332416        1.1449982216
 C         -1.4634248846       -0.4785359022        0.6774990109
 H         -1.9083090302       -0.0003443975       -0.1775390137
 N         -3.1990641574       -2.1486057333        0.5938067741
 S         -3.9219052032       -1.5728535658       -0.7851237964
 O         -5.0928816620       -2.4123387724       -0.9322732039
 O         -3.0317026939       -1.5415555576       -1.9209576056
 C         -4.4268501760        0.0811181839       -0.3560512988
 C         -4.9528859523        0.3221899415        0.8974603814
 C         -5.3444692247        1.6113134543        1.2218963267
 C         -5.2084463948        2.6315674856        0.2928600593
 C         -4.6865416173        2.3720289221       -0.9649467875
 C         -4.2935650710        1.0847537799       -1.2947088251
 H         -3.8736910948        0.8380080926       -2.2573916163
 H         -4.5813413464        3.1658370049       -1.6873250497
 H         -5.5089746509        3.6351325670        0.5497638906
 H         -5.7510677235        1.8174274052        2.1988937242
 H         -5.0418421831       -0.4913153909        1.5978538894
 H         -3.4932469724       -3.0717639443        0.8683066993
 H         -1.8294292512       -3.2684330608        2.5597036609
 H          0.2080022984       -2.3396153185        3.5949871554
 H          1.1595669430       -0.2165809106        2.7721507159
 H          0.4169320666        1.9950814246        1.6728977036
 C         -0.5706249208        2.1037505098       -0.1971060449
 C          0.0220746950        3.0994906625       -1.1474607695
 C         -0.5496852814        1.8163547044       -1.6668829686
 H         -1.4828383611        1.8501997880       -2.2096325362
 H          0.1241746999        1.0505711404       -2.0178737758
 H         -0.5180894268        4.0158438928       -1.3306669473
 H          1.0957505411        3.2190676119       -1.1446369223
 H         -1.5331259563        2.3660975284        0.2328978350
