  62
        -98.93557112
 C          1.9585461467        0.9875231748       -0.2606385684
 C          2.6781266282        0.4078175773        0.8138556597
 C          3.0549874945       -1.0094201356        0.6921725816
 C          2.6832110535       -1.6925321564       -0.4060157953
 C          2.8616899158       -3.1484872138       -0.7848225005
 C          3.8319633048       -4.0414938837       -0.0157004248
 C          5.3074669913       -3.6854434244       -0.1959223664
 H          5.8950661950       -4.3135017230        0.4770286907
 H          5.5998383060       -3.9293660238       -1.2202683873
 C          5.6666017256       -2.2221178230        0.0487864770
 H          5.1502629610       -1.5917140949       -0.6780363748
 H          6.7392379170       -2.1068770358       -0.1287859736
 C          5.3702808969       -1.7027245116        1.4541081081
 H          5.8139925878       -0.7070896697        1.5369999611
 H          5.8515297584       -2.3461525149        2.1930405021
 C          3.8796477701       -1.5747930623        1.8130741126
 H          3.4697257445       -2.5242333075        2.1494360452
 H          3.7904570063       -0.8674423531        2.6427315390
 H          3.6881243974       -5.0563003680       -0.3964839165
 H          3.5684059062       -4.0603502957        1.0376089344
 H          3.1354913298       -3.1496553462       -1.8448714419
 H          1.8596406380       -3.5887874195       -0.7260300210
 O          1.9792523232       -1.0987710662       -1.4123000764
 C          1.5972457676        0.2340950900       -1.3763992654
 O          0.9749746505        0.5941215982       -2.3955056699
 O          2.9989787996        1.0583845304        1.8459967207
 C          1.5569840826        2.4419182601       -0.0898949350
 C          0.2055036860        2.5341284123        0.5797218810
 C          0.0268101540        3.3180648275        1.7136002583
 C         -1.2044928340        3.3789494963        2.3411870027
 C         -2.2728176300        2.6443607668        1.8611787516
 C         -2.1055135940        1.8617824719        0.7235423946
 C         -0.8775945271        1.8251461754        0.0798850594
 H         -0.7679771061        1.2133084727       -0.8032547201
 N         -3.1719317919        1.1104355583        0.2060338256
 S         -2.8333405338       -0.4173522020       -0.4351208307
 O         -1.7855320428       -1.0558022712        0.3300583920
 O         -2.6227044650       -0.2889886569       -1.8544327322
 C         -4.3947454239       -1.2315800772       -0.1428347992
 C         -4.5497273522       -2.0171387483        0.9835462716
 C         -5.7787224148       -2.6124620065        1.2221186502
 C         -6.8273434659       -2.4098454733        0.3375275362
 C         -6.6568404956       -1.6188025772       -0.7890723632
 C         -5.4302300768       -1.0222314870       -1.0343686117
 H         -5.2457816156       -0.4075557017       -1.9000070181
 H         -7.4732058439       -1.4654031263       -1.4761805160
 H         -7.7827110694       -2.8733440987        0.5261566615
 H         -5.9127098924       -3.2303577389        2.0953124631
 H         -3.7034950711       -2.1507162659        1.6384332104
 H         -3.9749407781        1.0890459723        0.8200507137
 H         -3.2293840809        2.6729082947        2.3604618239
 H         -1.3287583289        3.9892553616        3.2226659754
 H          0.8676547465        3.8645312350        2.1141281633
 H          2.2976972725        2.8693717151        0.6008577583
 C          1.5685948832        3.2564527729       -1.3673753219
 C          1.7607766304        4.7401036996       -1.2825012524
 C          2.8515368987        3.8730398322       -1.8342661718
 H          3.0514567765        3.8984983061       -2.8947455672
 H          3.7311481200        3.7114114894       -1.2281915096
 H          1.2085786746        5.3680664473       -1.9643834892
 H          1.9050219149        5.1717562558       -0.3038460203
 H          0.8946287528        2.8759033258       -2.1239378633
