  62
        -98.94300880
 C         -0.8514824957       -1.7487861533        0.0565242882
 C         -1.7527117818       -1.1996470184        1.0004829080
 C         -2.9855679280       -0.6250288541        0.4490464986
 C         -3.1666929456       -0.5914951748       -0.8841825587
 C         -4.3998360836       -0.1098751117       -1.6010547868
 C         -4.4912362067        1.4114744273       -1.7775130245
 C         -4.8207964226        2.1933801819       -0.5058891398
 H         -5.0884072011        3.2064094663       -0.8121523054
 H         -5.6982340923        1.7566770904       -0.0280469965
 C         -3.6637246666        2.2709796093        0.4987792246
 H         -2.7295490730        2.0122741765       -0.0039822234
 H         -3.5676025319        3.2971615620        0.8585093280
 C         -3.8210280034        1.3777658900        1.7283015044
 H         -4.6716198748        1.7162054335        2.3244508266
 H         -2.9208916487        1.4729175177        2.3409152096
 C         -4.0165222016       -0.1083140821        1.4079593907
 H         -3.9127132575       -0.6747671319        2.3370663301
 H         -5.0170945957       -0.2766488409        1.0087046581
 H         -5.2770510868        1.6043530493       -2.5114560889
 H         -3.5491134651        1.7727136744       -2.1951405049
 H         -5.2857919542       -0.4676334181       -1.0743398080
 H         -4.3771016452       -0.5706536884       -2.5910078362
 O         -2.2341498741       -1.0518192241       -1.7606339450
 C         -1.0776263246       -1.6789015075       -1.3176521133
 O         -0.3531430417       -2.1194370374       -2.2295387744
 O         -1.5514792286       -1.2166604404        2.2448213043
 C          0.3474764009       -2.5300599730        0.5622417608
 C          1.6205632364       -2.1538433948       -0.1519142950
 C          2.4510343743       -3.0933725160       -0.7501106976
 C          3.6207472224       -2.7018605797       -1.3756710395
 C          3.9998669367       -1.3738703965       -1.3927812277
 C          3.1837133897       -0.4248743878       -0.7868840691
 C          1.9998278939       -0.8162478039       -0.1822623977
 H          1.3661211697       -0.0726427068        0.2820218121
 N          3.5524615883        0.9288971801       -0.7949854182
 S          3.2926270602        1.8924148238        0.5448233536
 O          4.3141884417        2.9157471932        0.4577388383
 O          3.2690922519        1.1228526500        1.7660273978
 C          1.7176376848        2.6617119846        0.2491874975
 C          0.7936480284        2.7459227865        1.2706662077
 C         -0.3916362026        3.4280266276        1.0468952637
 C         -0.6324239799        4.0065932290       -0.1896066895
 C          0.3017001473        3.9038786775       -1.2090787167
 C          1.4921250791        3.2306748915       -0.9886674149
 H          2.2466705379        3.1399359666       -1.7520722414
 H          0.1077773885        4.3505657487       -2.1710405937
 H         -1.5542886094        4.5398386307       -0.3597137867
 H         -1.1201362796        3.5038583274        1.8381670290
 H          1.0160196412        2.2747329579        2.2154274457
 H          4.4496891626        1.1168670572       -1.2183908876
 H          4.9176710875       -1.0672760086       -1.8714706743
 H          4.2498749079       -3.4423335707       -1.8459669486
 H          2.1810043092       -4.1359889278       -0.7347418228
 H          0.4581045872       -2.2510268813        1.6211415335
 C          0.0277180995       -4.0112242370        0.4863426824
 C          0.6624692867       -4.9766663947        1.4412164870
 C         -0.7898428522       -4.6340020321        1.5763889659
 H         -1.5242947053       -5.3787443594        1.3080004315
 H         -1.0950689667       -3.9943554523        2.3912651397
 H          0.9241704516       -5.9609603803        1.0830957348
 H          1.3482694977       -4.5763088054        2.1724958284
 H         -0.1632328645       -4.3435118051       -0.5289000756
