  62
        -98.94110182
 C          2.1041072798        0.7839191108       -0.4173533787
 C          3.2459884695        1.2865932811        0.2599324916
 C          4.5016998398        0.5600296016        0.0453645216
 C          4.5143901203       -0.5277677382       -0.7454839587
 C          5.7182121407       -1.3655928777       -1.0814854588
 C          6.0533517209       -2.4291993578       -0.0269310090
 C          6.6519580506       -1.8906096979        1.2731576712
 H          7.0397805608       -2.7483843079        1.8262793210
 H          7.4985569404       -1.2434996575        1.0414000015
 C          5.6546123202       -1.1383281385        2.1653349213
 H          4.6351319503       -1.3801533588        1.8555900811
 H          5.7631328102       -1.4768254987        3.1982403612
 C          5.8251419496        0.3808498616        2.1660450917
 H          6.7933927695        0.6406918118        2.5996396219
 H          5.0458435094        0.8129810111        2.7988173617
 C          5.7218546796        1.0287295919        0.7791875418
 H          5.6360645491        2.1100427818        0.9120547521
 H          6.6191794497        0.8178194424        0.1976580519
 H          6.7736465713       -3.1169855374       -0.4760498091
 H          5.1471575511       -2.9972206782        0.1965153408
 H          6.5829240605       -0.7194016173       -1.2359301085
 H          5.4907991110       -1.8732445775       -2.0214490389
 O          3.3973350506       -0.9912326784       -1.3629333290
 C          2.1634067103       -0.3669894789       -1.2055747389
 O          1.2402320106       -0.9336245291       -1.8184555492
 O          3.2163935791        2.2991369809        1.0082968318
 C          0.7902331195        1.5139636703       -0.1958217586
 C         -0.2870865902        0.5325433898        0.1867986010
 C         -0.2728251401       -0.0212386405        1.4637615608
 C         -1.2216006298       -0.9522873010        1.8418094705
 C         -2.2044715696       -1.3521406011        0.9537940803
 C         -2.2280719196       -0.8045834308       -0.3220276896
 C         -1.2831749299        0.1433123396       -0.6944606292
 H         -1.2985703400        0.5441750999       -1.6957979491
 N         -3.2150418994       -1.2122684309       -1.2312987898
 S         -4.7866834194       -1.4044892817       -0.7051212300
 O         -4.9241964590       -2.6583355319       -0.0063040504
 O         -5.6024963093       -1.2482782217       -1.8888211301
 C         -5.0646254300       -0.0514685920        0.4245192403
 C         -5.3091285201       -0.3024173825        1.7590283502
 C         -5.4869470006        0.7681938073        2.6209782604
 C         -5.4146692610        2.0644842674        2.1360478807
 C         -5.1720838609        2.3006098278        0.7911977408
 C         -4.9938734004        1.2342717981       -0.0746527794
 H         -4.8121827103        1.3814048084       -1.1270995794
 H         -5.1190079112        3.3101236879        0.4162149911
 H         -5.5494450314        2.8967048872        2.8087913109
 H         -5.6780036106        0.5874554969        3.6665360803
 H         -5.3586446197       -1.3254737126        2.0945537499
 H         -3.1615032194       -0.7677249807       -2.1347768897
 H         -2.9369004893       -2.0959959715        1.2219531900
 H         -1.1938144498       -1.3769770612        2.8338391204
 H          0.5029513397        0.2798666096        2.1544619910
 H          0.9866456491        2.1595209801        0.6757681015
 C          0.3814316093        2.4407822004       -1.3309462485
 C          1.4155372691        3.2092048210       -2.0967619082
 C          0.6295763496        2.1294888809       -2.7753490685
 H         -0.1207093904        2.4210472708       -3.4964490785
 H          1.1251978099        1.2022119511       -3.0160800487
 H          1.2100277287        4.2373419110       -2.3539728079
 H          2.4525388891        3.0152687713       -1.8642451181
 H         -0.5388930109        2.9698146700       -1.1018153984
