  62
        -98.93160396
 C          2.3836743796        1.1435267009        0.3185069498
 C          2.5461157599       -0.1046840890        0.9750822799
 C          3.8044186400       -0.8209386088        0.7306956399
 C          4.7352939699       -0.2686060486       -0.0675182802
 C          6.1042232600       -0.8151847884       -0.3766286402
 C          6.1519397602       -2.1423834884       -1.1573284401
 C          6.2512389005       -3.3919144984       -0.2737434601
 H          6.9429430406       -4.0971551883       -0.7388201400
 H          6.6881685204       -3.1103774882        0.6850502999
 C          4.9392342906       -4.1453673386       -0.0352868400
 H          4.6990558407       -4.7344878587       -0.9233005700
 H          5.0988297208       -4.8436930185        0.7891048100
 C          3.7199150305       -3.2785823288        0.2808814400
 H          2.9123117506       -3.9325924990        0.6166864901
 H          3.3628096103       -2.7965314789       -0.6326087600
 C          3.9649576403       -2.1842266787        1.3378856399
 H          4.9538093103       -2.2920983085        1.7816601999
 H          3.2201214803       -2.2607846588        2.1327848200
 H          7.0387006602       -2.1030485383       -1.7918476902
 H          5.2860703802       -2.2083065386       -1.8155024401
 H          6.5990724098       -0.0387796283       -0.9635312603
 H          6.6543184400       -0.9268593982        0.5605109498
 O          4.5448001096        0.9311921813       -0.6759930902
 C          3.3742269295        1.6589812611       -0.5183635603
 O          3.3682153593        2.7229149310       -1.1678728703
 O          1.6806282300       -0.5916606891        1.7533738199
 C          1.0893607495        1.8901435007        0.5897442298
 C          0.0687339695        1.6975151904       -0.5073721902
 C          0.3294650294        2.0756549204       -1.8202617302
 C         -0.6321924406        1.9044640802       -2.7990230302
 C         -1.8670805905        1.3630906400       -2.4896488601
 C         -2.1434217804        0.9943406100       -1.1776149601
 C         -1.1730576404        1.1598300502       -0.1990237801
 H         -1.3894591103        0.8492777302        0.8120548199
 N         -3.4147769003        0.5021691098       -0.8376138600
 S         -3.6020254901       -0.6108528302        0.4152558801
 O         -3.4286329601        0.0690672399        1.6738454300
 O         -2.7710794398       -1.7718341901        0.1846514401
 C         -5.3225522700       -1.0224891905        0.1919099101
 C         -5.6707099098       -2.2025768706       -0.4369106298
 C         -7.0134962697       -2.4900610309       -0.6271019998
 C         -7.9794822899       -1.5962092911       -0.1904576198
 C         -7.6146053501       -0.4159359110        0.4404975002
 C         -6.2743512201       -0.1233760707        0.6351862301
 H         -5.9434985203        0.7759113094        1.1278191100
 H         -8.3684790502        0.2753173189        0.7811060601
 H         -9.0234367998       -1.8220276813       -0.3402237397
 H         -7.3002123496       -3.4082670210       -1.1139115297
 H         -4.8854443497       -2.8705226905       -0.7528321798
 H         -3.9529936803        0.2266217296       -1.6481547000
 H         -2.6153824205        1.2321355998       -3.2565739901
 H         -0.4162136507        2.1945401002       -3.8163394102
 H          1.2925805693        2.4962201106       -2.0647352902
 H          0.6803581596        1.4283362807        1.4995725098
 C          1.2889517592        3.3707295708        0.8551837397
 C          0.2315622491        4.1179532106        1.6085545297
 C          1.5553528292        3.8374070709        2.2530325597
 H          2.2441105790        4.6557547410        2.3995027696
 H          1.5953514493        3.0880264409        3.0305117697
 H          0.0082318189        5.1313628305        1.3127847597
 H         -0.6274262608        3.5586848204        1.9492127898
 H          1.7978593191        3.8859820508        0.0512354297
