  62
        -98.94603000
 C         -1.4612431217       -1.0786512024        0.0970216881
 C         -2.3963632895       -0.7314077054        1.0988428839
 C         -3.0264045527        0.5888852807        0.9580182857
 C         -2.6541891251        1.3901245162       -0.0571297840
 C         -3.2437414365        2.7412810820       -0.3395565985
 C         -4.4330750770        2.6373474667       -1.3045188715
 C         -5.4582696377        1.5748907090       -0.9084866636
 H         -6.2662063493        1.6130900124       -1.6423059747
 H         -4.9982601133        0.5873055393       -0.9882619428
 C         -6.0408322658        1.7486348643        0.5011121840
 H         -5.8665806211        2.7665487008        0.8520455173
 H         -7.1221793266        1.6036761701        0.4536042263
 C         -5.5048487155        0.7575280492        1.5360306703
 H         -5.5936444529       -0.2605959203        1.1484125850
 H         -6.1340501459        0.8233802976        2.4277666153
 C         -4.0541173033        0.9782759670        1.9830010249
 H         -3.9188988038        2.0166331564        2.2934859388
 H         -3.8720766694        0.3354120469        2.8496087431
 H         -4.9198333494        3.6128502836       -1.3583146355
 H         -4.0527481805        2.3915514561       -2.2985167178
 H         -3.5612591925        3.1969991862        0.5964113214
 H         -2.4741651380        3.3682764767       -0.7929600353
 O         -1.7205904663        1.0381067675       -0.9771597529
 C         -1.1126756252       -0.2102470265       -0.9387648524
 O         -0.2970718775       -0.4149875971       -1.8536666577
 H          0.5420515875       -0.6659774944        1.6688685606
 C          1.2311501494       -1.2400939090        1.0611272288
 C          0.7306809502       -2.2229556796        0.2155899540
 C          1.6292201358       -2.9535507965       -0.5500325186
 C          2.9869866640       -2.6894521441       -0.4827760479
 C          3.4776867443       -1.6960334247        0.3435826138
 C          2.5875880858       -0.9672674341        1.1221573484
 N          3.0735085223        0.0629498880        1.9526482600
 S          4.0099351815        1.2315333536        1.1966052687
 O          5.3541560282        0.7334640502        1.0450257725
 O          3.8653458128        2.4184757549        2.0105721145
 C          3.2644838565        1.4712300769       -0.4048382712
 C          2.0190829866        2.0648443101       -0.4601935936
 C          1.4056359224        2.2230824616       -1.6910022165
 C          2.0414742076        1.7784684311       -2.8392804734
 C          3.2906772093        1.1838339554       -2.7672234825
 C          3.9113871642        1.0258664151       -1.5386644265
 H          4.8825012348        0.5694432344       -1.4382016962
 H          3.7792346899        0.8360867850       -3.6631857905
 H          1.5518439292        1.8901936797       -3.7934586165
 H          0.4266377045        2.6708314998       -1.7506928296
 H          1.5511159542        2.3991191590        0.4531765200
 H          2.3498436290        0.5044126359        2.5019022733
 H          4.5295884799       -1.4670406069        0.3978624054
 H          3.6722698318       -3.2614844723       -1.0892406224
 H          1.2665834015       -3.7244838089       -1.2096169879
 C         -0.7639525644       -2.4250148062        0.1670059253
 H         -1.0846120488       -2.8755699087        1.1183047241
 C         -1.2181464557       -3.3146160853       -0.9712810147
 C         -1.2525693571       -4.8034688208       -0.8031289636
 C         -2.5319720455       -4.0250908928       -0.8521840522
 H         -3.1557295438       -4.1083252252       -1.7295660984
 H         -3.0864133994       -3.8906357728        0.0653459863
 H         -1.0003599664       -5.4244527916       -1.6494272771
 H         -0.9422659533       -5.2073044475        0.1487085581
 H         -0.9527517492       -2.9126059253       -1.9425930295
 O         -2.6834334020       -1.4837585626        2.0701014675
