  62
        -98.93310521
 C          2.3878943744        1.2987046599        0.0032150805
 C          2.4003391342        0.0068289396       -0.5735015095
 C          3.7265548008       -0.6092675797       -0.7440463287
 C          4.8223441870        0.0765574348       -0.3703027855
 C          6.2315587051       -0.4429307756       -0.4073993985
 C          6.4716946042       -1.3974498005        0.7797761380
 C          6.7387790790       -2.8477220558        0.3771337338
 H          6.6795021012       -3.4548304544        1.2828914704
 H          7.7576341336       -2.9273965727       -0.0074178886
 C          5.7934756313       -3.4317954439       -0.6772050272
 H          5.9300209606       -4.5151584978       -0.6617672393
 H          6.0961786525       -3.0944945415       -1.6695689278
 C          4.3026918219       -3.1218810106       -0.4884591120
 H          4.0821999729       -2.9046430139        0.5569385351
 H          3.7333798077       -4.0153359549       -0.7531668698
 C          3.7686676410       -1.9764087953       -1.3690060761
 H          2.7284590101       -2.1936243148       -1.6308164629
 H          4.3394061412       -1.9352434029       -2.3010484724
 H          5.5986020267       -1.3554938002        1.4343025568
 H          7.3208434031       -1.0429949163        1.3658792360
 H          6.4101967941       -0.9527874189       -1.3513522060
 H          6.8965631333        0.4184052465       -0.3433533634
 O          4.7675077020        1.3214348000        0.1713294138
 C          3.5566113242        1.9611651048        0.3760382078
 O          3.6510712117        3.0928750110        0.8921440876
 H         -1.5799503596        1.3486092441       -0.2215217734
 C         -1.1770451778        0.9273904202        0.6833034653
 C          0.1392819992        1.1633520212        1.0466443736
 C          0.6161984377        0.6056547174        2.2304592829
 C         -0.1969574826       -0.1893621498        3.0135311140
 C         -1.5022797294       -0.4460541819        2.6324373324
 C         -1.9947898141        0.1200129840        1.4629557875
 N         -3.3367937986       -0.0851052511        1.0907352117
 S         -3.7482446827       -0.3250630501       -0.5289770031
 O         -3.0559934864       -1.4765902932       -1.0642071159
 O         -3.5922015615        0.9134523726       -1.2475052271
 C         -5.4844777497       -0.6876501653       -0.3380722283
 C         -6.3489340174        0.3605814253       -0.0848596059
 C         -7.6962268875        0.0901655356        0.0922332928
 C         -8.1548244116       -1.2166861891        0.0137323716
 C         -7.2760127704       -2.2578866157       -0.2434165916
 C         -5.9265704283       -1.9941468242       -0.4199145281
 H         -5.2077407471       -2.7701643270       -0.6289937208
 H         -7.6357402005       -3.2721959599       -0.3073258512
 H         -9.2042062263       -1.4244440738        0.1510319412
 H         -8.3830531153        0.8971756835        0.2900669277
 H         -5.9481553477        1.3596755137       -0.0412117199
 H         -3.7799216254       -0.7963730658        1.6580761578
 H         -2.1345854626       -1.0775645602        3.2382869729
 H          0.1897732055       -0.6212275639        3.9245843335
 H          1.6406054349        0.7980535091        2.5212970210
 C          1.0686432053        2.0174145209        0.2192250656
 H          1.3062424760        2.9238647890        0.7959353732
 C          0.4813810652        2.4319144426       -1.1137736218
 C         -0.3833833065        3.6512352751       -1.2121291298
 C          1.0011779416        3.6661266992       -1.7850543066
 H          1.1182334319        3.6587622156       -2.8583589019
 H          1.7654988101        4.2255312471       -1.2650350558
 H         -0.5615931383        4.2101288544       -0.3058390964
 H         -1.2242774172        3.6294456371       -1.8892026011
 H          0.2393459171        1.5835431513       -1.7454124241
 O          1.3572104358       -0.6041919418       -0.9285399417
