  62
        -98.94358565
 C         -1.7337446634        1.2494675819       -0.1720827578
 C         -1.8640858405        0.0591746489        0.5836949845
 C         -3.2385239599       -0.3166804218        0.9468726510
 C         -4.2605797162        0.4744144511        0.5728553913
 C         -5.7101691663        0.1795826572        0.8266042903
 C         -6.3294801279       -0.6027261660       -0.3401335567
 C         -5.5062187030       -1.8142175908       -0.7780574276
 H         -6.0539584920       -2.3042330893       -1.5860663561
 H         -4.5578714105       -1.4691455617       -1.1965316474
 C         -5.2260730390       -2.8291544713        0.3390187315
 H         -5.9227157603       -2.6735772657        1.1636112192
 H         -5.4033177430       -3.8342867842       -0.0494815034
 C         -3.7930347201       -2.8042412940        0.8741294049
 H         -3.6463018204       -3.6942329211        1.4918192633
 H         -3.0889853276       -2.8646219296        0.0402037538
 C         -3.4218028105       -1.5863539433        1.7295239563
 H         -4.1635676211       -1.4507840040        2.5190868276
 H         -2.4538328604       -1.7910656416        2.1957834643
 H         -6.4283515096        0.0707546004       -1.1947342072
 H         -7.3295614814       -0.9269214058       -0.0464506976
 H         -5.8041918933       -0.3891220495        1.7495700282
 H         -6.2398497777        1.1271422095        0.9383880110
 O         -4.0914938106        1.6226247048       -0.1326041127
 C         -2.8300829664        2.0299414365       -0.5359388303
 O         -2.8171269201        3.0844993107       -1.2035907685
 H          2.1473624991        0.5892012486       -0.3717433732
 C          1.5709073421        0.1527185880       -1.1681302089
 C          0.2948834982        0.6186219279       -1.4370230018
 C         -0.4128722893        0.0538464045       -2.4954224901
 C          0.1398257387       -0.9625602834       -3.2495036904
 C          1.4070138182       -1.4405684441       -2.9636393424
 C          2.1245321166       -0.8800293033       -1.9137384837
 N          3.3843456152       -1.3770407333       -1.5724579957
 S          4.5029354712       -0.5250904246       -0.6859321574
 O          4.6488003422        0.8303505815       -1.1644326930
 O          5.6964467767       -1.3418254455       -0.7476411476
 C          3.8719725523       -0.5192144628        0.9796086978
 C          4.0770481368        0.6014869158        1.7599908671
 C          3.5972915274        0.6123512499        3.0596745372
 C          2.9251308780       -0.4943378650        3.5547575531
 C          2.7329843851       -1.6141119402        2.7606138521
 C          3.2121455923       -1.6318115245        1.4608009416
 H          3.0677274117       -2.4834062030        0.8172035982
 H          2.2029688624       -2.4698211070        3.1466216517
 H          2.5448219640       -0.4820669438        4.5641604326
 H          3.7442437516        1.4831741403        3.6787714952
 H          4.5943624698        1.4444462447        1.3291470525
 H          3.7822734775       -2.0727045095       -2.1831439448
 H          1.8339463130       -2.2440256446       -3.5440324383
 H         -0.4209965575       -1.3913805273       -4.0666323887
 H         -1.4068992541        0.4213181239       -2.7137777959
 C         -0.3567107758        1.7066444565       -0.6188467837
 H         -0.5177277439        2.5781313936       -1.2702530222
 C          0.4622811431        2.1363745690        0.5806301651
 C          1.5524228575        3.1521537642        0.4257306844
 C          0.2797750908        3.5192071734        1.1266029515
 H          0.3014655308        3.6579340759        2.1968873701
 H         -0.4196595544        4.1656798422        0.6163300418
 H          2.4498877295        3.0384236331        1.0145389988
 H          1.7263815008        3.5538120623       -0.5612724278
 H          0.6101833682        1.3328355411        1.2936405715
 O         -0.8888666531       -0.6528180903        0.9355195469
