  62
        -98.93720059
 C         -1.3826171332       -1.2567365823        0.0134983608
 C         -2.6411254524       -1.3122832427        0.6652280205
 C         -3.4208109643       -0.0643757807        0.7303163949
 C         -2.8993010487        1.0643456072        0.2154939936
 C         -3.4247398063        2.4845604848        0.1946805846
 C         -4.8939281938        2.7786886247        0.4874250706
 C         -5.8756930816        2.2414997592       -0.5530228568
 H         -5.7406604975        2.8012075609       -1.4820632294
 H         -6.8898869190        2.4325070888       -0.1952294005
 C         -5.7382898746        0.7576333221       -0.8850934398
 H         -4.7674515217        0.5740873274       -1.3500583612
 H         -6.5015270956        0.5095379177       -1.6278350361
 C         -5.9123364434       -0.1964729333        0.2953766314
 H         -5.9598238425       -1.2119894918       -0.1075047452
 H         -6.8611410590        0.0071030286        0.7956136595
 C         -4.7868377237       -0.1669047699        1.3448417098
 H         -4.8086173795       -1.1146993387        1.8906237398
 H         -4.9425676144        0.6289163662        2.0695153342
 H         -4.9957308988        3.8672928917        0.5044349102
 H         -5.1602381348        2.4231969355        1.4784939579
 H         -3.1716343059        2.8801341957       -0.7938498996
 H         -2.8142110609        3.0374508894        0.9169763501
 O         -1.6713267815        1.0790808946       -0.3742265950
 C         -0.8892995315       -0.0594148593       -0.5090740300
 O          0.1810586105        0.1482432270       -1.1065926238
 O         -3.0970112930       -2.3662944903        1.1842439018
 C         -0.5543019952       -2.5317734801       -0.0056929955
 C          0.7996772726       -2.2200888470        0.5746535552
 C          0.9734909262       -2.2054984011        1.9546565450
 C          2.1780090657       -1.8142606218        2.5101565099
 C          3.2196561825       -1.3951050819        1.7009371065
 C          3.0469686757       -1.3893727394        0.3230082730
 C          1.8579697047       -1.8372667069       -0.2348543626
 H          1.7375220266       -1.8370164007       -1.3065650238
 N          4.0802710517       -0.9071551878       -0.5079102944
 S          4.5998523278        0.6625218138       -0.2294344338
 O          5.3590399486        1.0222694074       -1.4066251308
 O          5.3224870159        0.6955645107        1.0190654159
 C          3.1392128746        1.6781747462       -0.1077702861
 C          2.5162610159        1.8261914741        1.1144412635
 C          1.3603752537        2.5856789491        1.1869593073
 C          0.8530396337        3.1844055731        0.0453055412
 C          1.4935259059        3.0295655486       -1.1730208373
 C          2.6440931177        2.2642819413       -1.2540564707
 H          3.1690717176        2.1165816828       -2.1843247406
 H          1.0905348114        3.4892520425       -2.0612475567
 H         -0.0530528767        3.7672628253        0.1028910830
 H          0.8548777644        2.6999079120        2.1333027797
 H          2.9413673398        1.3514677955        1.9836574784
 H          3.8594495019       -1.0036122632       -1.4896020114
 H          4.1538334518       -1.0516556217        2.1154473216
 H          2.3038048136       -1.8203917183        3.5824004991
 H          0.1472422191       -2.4937311017        2.5896514067
 H         -1.0809875851       -3.2092422337        0.6847998635
 C         -0.4817112149       -3.2493769227       -1.3444655676
 C         -1.7101134559       -3.3860487519       -2.1927279270
 C         -0.5601443364       -2.5523169727       -2.6680373925
 H          0.0462227913       -2.9338359269       -3.4771440367
 H         -0.6672204368       -1.4795094327       -2.6743996763
 H         -1.9027450500       -4.3298566078       -2.6801271373
 H         -2.6012982253       -2.8775401789       -1.8543797279
 H          0.1705031209       -4.1166204820       -1.2951060542
