  62
        -98.93582756
 C          1.9090080503        0.9631024086        0.5865258710
 C          2.2620131585        0.3041058990       -0.6143264145
 C          2.7102888557       -1.0881583657       -0.4734464563
 C          2.7070376921       -1.6697736744        0.7392449960
 C          3.0729747363       -3.0966258817        1.0537415146
 C          4.5428198762       -3.4922426415        0.8116248739
 C          4.8115197554       -4.1181225504       -0.5624961659
 H          5.5173215204       -4.9421614677       -0.4402585556
 H          3.8836809446       -4.5524895872       -0.9364958968
 C          5.3996078536       -3.1791413763       -1.6199482142
 H          6.4648883420       -3.0416227062       -1.4214298820
 H          5.3063557931       -3.6698568902       -2.5910154053
 C          4.7674688466       -1.7896398268       -1.7049268181
 H          5.1305900462       -1.3045822702       -2.6130290597
 H          5.1124163922       -1.1771761377       -0.8684989168
 C          3.2261178667       -1.7808066188       -1.7013552205
 H          2.8529591254       -1.2132253484       -2.5562674087
 H          2.8328771801       -2.7943960104       -1.7636758220
 H          4.8014439778       -4.2258964303        1.5767524874
 H          5.1820987951       -2.6237725485        0.9677278928
 H          2.4177327757       -3.7578950594        0.4819335631
 H          2.8363831266       -3.2294056059        2.1115399473
 O          2.3161663247       -1.0111422758        1.8662727243
 C          1.9199244233        0.3144327231        1.8196579556
 O          1.6071285737        0.7982470124        2.9287567854
 O          2.2049082251        0.8475070603       -1.7487292754
 C          1.4426344145        2.4053635631        0.5471699423
 C          0.2145683378        2.5415140575       -0.3217292026
 C         -0.0073720373        3.6345214815       -1.1501353245
 C         -1.1680688926        3.7201036573       -1.8993466009
 C         -2.1301346596        2.7299949040       -1.8336687262
 C         -1.9154412322        1.6289543972       -1.0106980730
 C         -0.7542951600        1.5481818195       -0.2602257256
 H         -0.6022746291        0.6927261676        0.3834286348
 N         -2.8533755035        0.5850682131       -0.9534441625
 S         -2.9724338518       -0.3453994233        0.4460106490
 O         -3.0159913306        0.5086010603        1.6124134775
 O         -1.9444379480       -1.3571776142        0.4245677984
 C         -4.5679697552       -1.0986628885        0.1849332423
 C         -5.6880376450       -0.5147250331        0.7464788819
 C         -6.9299441351       -1.0844643263        0.5137231491
 C         -7.0308961431       -2.2207493944       -0.2748772184
 C         -5.8979494168       -2.7965005845       -0.8305669001
 C         -4.6530161330       -2.2322501731       -0.6010598362
 H         -3.7438377361       -2.6478840884       -1.0035459264
 H         -5.9796094072       -3.6817091434       -1.4403907407
 H         -7.9981920411       -2.6623633965       -0.4550412025
 H         -7.8115588235       -0.6410755696        0.9476414782
 H         -5.5587209619        0.3620368047        1.3605004407
 H         -3.7590707546        0.8399531628       -1.3223345506
 H         -3.0343086453        2.7992743992       -2.4187135041
 H         -1.3274525463        4.5739222418       -2.5402579086
 H          0.7296487473        4.4184711767       -1.2100168520
 H          1.1511478856        2.6581381054        1.5785811037
 C          2.5813152795        3.3115600416        0.1236245734
 C          2.6836079135        4.7063696296        0.6613027005
 C          3.6413902892        3.6521073010        1.1261466898
 H          4.6679015969        3.7017689120        0.7955049195
 H          3.5223781081        3.2535518332        2.1236786030
 H          3.0573615954        5.4833605824        0.0116120204
 H          1.9202737851        5.0336148712        1.3511796807
 H          2.8970732366        3.1278117721       -0.8968541682
