  62
        -98.94022486
 C          1.5020954933        1.4404703661        0.4759843290
 C          1.4658110020        0.3364802776       -0.4073699836
 C          2.2941657614       -0.8258305612       -0.0349789383
 C          2.9921527512       -0.8018037973        1.1156354761
 C          3.8765060539       -1.8470158199        1.7635372635
 C          4.4012197807       -3.0337507153        0.9589303192
 C          5.3866758659       -2.6705143843       -0.1511105989
 H          5.6229368796       -3.5803146699       -0.7073843242
 H          6.3117709064       -2.3127931956        0.3081230002
 C          4.9131201834       -1.5985598882       -1.1298092859
 H          5.7052516419       -1.4486424614       -1.8685094710
 H          4.7844451677       -0.6512298165       -0.6020683828
 C          3.6267773662       -1.9253440745       -1.8862622286
 H          3.7295258556       -2.8921070516       -2.3825823620
 H          3.4995188655       -1.1635044713       -2.6597092812
 C          2.3430390479       -1.9418644620       -1.0371958978
 H          2.2055138069       -2.9031243756       -0.5488984878
 H          1.4916606396       -1.7829375946       -1.7044048464
 H          3.5751602072       -3.6136448817        0.5583949985
 H          4.9269046505       -3.6798854942        1.6674232030
 H          4.7250626116       -1.2975600863        2.1835534353
 H          3.3081084949       -2.2327157245        2.6174135641
 O          2.9439128300        0.2667340338        1.9665437261
 C          2.2243576971        1.4101676860        1.6657755533
 O          2.2974739690        2.3081023539        2.5303141049
 H         -0.7867472098        1.0878524883        1.6151578962
 C         -1.3585365958        1.5149392802        0.7997648205
 C         -0.7297717296        2.3848639733       -0.0824643937
 C         -1.4777339841        2.9296273786       -1.1179112995
 C         -2.8140071877        2.5999821937       -1.2676534553
 C         -3.4327146394        1.7257499418       -0.3936716995
 C         -2.6938642777        1.1769361754        0.6470572843
 N         -3.3090685327        0.2835072412        1.5465149837
 S         -4.0893679798       -1.0552811716        0.9104109645
 O         -5.3000644272       -0.6275289825        0.2561727394
 O         -4.2536962384       -1.9585411738        2.0271607021
 C         -2.9607618011       -1.7492002322       -0.2811607051
 C         -1.9930476493       -2.6250177121        0.1685304687
 C         -1.0893251104       -3.1490907569       -0.7399902526
 C         -1.1589394088       -2.7785413058       -2.0739280273
 C         -2.1298234818       -1.8904733727       -2.5074935085
 C         -3.0431995995       -1.3699243004       -1.6053330843
 H         -3.8192875498       -0.6867207827       -1.9077256924
 H         -2.1759288060       -1.5988549324       -3.5441816969
 H         -0.4522011506       -3.1856226363       -2.7799480846
 H         -0.3326471639       -3.8403083002       -0.4050916258
 H         -1.9758334058       -2.8927755438        1.2132522211
 H         -2.6997754999       -0.0054970730        2.2983163277
 H         -4.4708425753        1.4553489867       -0.4996828714
 H         -3.3821548306        3.0302439714       -2.0783082836
 H         -1.0137906449        3.6101640921       -1.8126113667
 C          0.7292023215        2.7016986835        0.1388118217
 H          0.8071685015        3.3539395049        1.0214387251
 C          1.3783668200        3.3979248717       -1.0404350037
 C          1.3236629300        4.8898748675       -1.1672913297
 C          2.6118134391        4.2151698958       -0.8054976692
 H          3.4027104379        4.1806020290       -1.5397038306
 H          2.9656615176        4.2949647548        0.2124917583
 H          0.8072404338        5.4400993303       -0.3952592103
 H          1.2336962600        5.3214712055       -2.1528181306
 H          1.3373607737        2.8034572462       -1.9459905064
 O          0.7739984111        0.3150747704       -1.4567786389
