  62
        -98.94663104
 C         -2.4682747081       -0.4078702576       -0.0518249401
 C         -2.2019551652       -1.5331670308       -0.8650548152
 C         -1.5092841454       -2.6463274649       -0.2096410571
 C         -1.1739827291       -2.5490110958        1.0898767441
 C         -0.4355355837       -3.5868822599        1.8907585262
 C          1.0881055356       -3.5146755944        1.7151567953
 C          1.6144746514       -4.0589643412        0.3860429713
 H          2.6939375997       -4.1802413279        0.4964488668
 H          1.1902290131       -5.0473831566        0.2037837089
 C          1.3445320352       -3.1452565354       -0.8172902543
 H          1.1116105520       -2.1406726851       -0.4567049287
 H          2.2516384755       -3.0689592635       -1.4220021586
 C          0.2244340508       -3.6223724942       -1.7422925969
 H          0.5165756234       -4.5619717428       -2.2175146329
 H          0.0869047744       -2.8749306940       -2.5279033475
 C         -1.1276403640       -3.8295235826       -1.0485420542
 H         -1.8928786633       -3.9472391176       -1.8202358610
 H         -1.1034223049       -4.7326890464       -0.4391755852
 H          1.3986785180       -2.4721664605        1.8272081010
 H          1.5396233018       -4.0900520105        2.5271922505
 H         -0.6723174203       -3.3970795875        2.9399600001
 H         -0.7910658492       -4.5837943759        1.6274136707
 O         -1.4914273174       -1.4692268047        1.8516841206
 C         -2.1022408293       -0.3592764055        1.2938786618
 O         -2.2873359729        0.5827689547        2.0912839650
 H         -0.4263295184        0.7870549790       -0.8779270270
 C         -0.7749289842        1.7692195476       -0.5971016374
 C         -2.1395848381        1.9989918024       -0.4717369660
 C         -2.5676927122        3.2776349298       -0.1407830465
 C         -1.6463645729        4.2820106149        0.1036669160
 C         -0.2888934023        4.0247782155        0.0572630252
 C          0.1494065437        2.7519507463       -0.2900159394
 N          1.5261064313        2.4357823482       -0.3417971481
 S          2.0820660510        1.1901541185        0.6632006719
 O          1.2393507757        0.0314721649        0.5472751295
 O          2.2845350546        1.7171298780        1.9988970285
 C          3.6628925930        0.8663436425       -0.0931000253
 C          4.8112611670        1.4071988588        0.4513853458
 C          6.0261426339        1.1662285288       -0.1712001146
 C          6.0705848088        0.3943039284       -1.3220344153
 C          4.9085713980       -0.1423867220       -1.8565988159
 C          3.6913062556        0.0959566134       -1.2391376218
 H          2.7640887601       -0.3055617024       -1.6148233652
 H          4.9458500131       -0.7440298402       -2.7504720184
 H          7.0165602505        0.2073355920       -1.8051483977
 H          6.9311970530        1.5803936880        0.2429545565
 H          4.7296595484        1.9918691793        1.3534044058
 H          2.0983196477        3.2490882935       -0.1476253058
 H          0.4276682367        4.7976862061        0.2933208084
 H         -1.9913950374        5.2717085654        0.3627202464
 H         -3.6221815185        3.4856820178       -0.0584156012
 C         -3.0751805973        0.8328847753       -0.6817528066
 H         -3.1390749347        0.6172135931       -1.7591222784
 C         -4.4711596090        1.0806913533       -0.1497140695
 C         -5.5094635107        1.7312047962       -1.0133635172
 C         -5.6069127688        0.2702120872       -0.6961412365
 H         -6.3762281583       -0.0628414892       -0.0158672834
 H         -5.3743260430       -0.4414659888       -1.4747198332
 H         -6.2177343430        2.4020553475       -0.5508608769
 H         -5.2218151769        2.0123539924       -2.0150926194
 H         -4.4747867743        1.2972056823        0.9130713586
 O         -2.5193462473       -1.5985042270       -2.0848183460
