  62
        -98.93637828
 C         -2.0779897808       -1.5938782979        0.0247982585
 C         -1.7973443773       -0.5178437704       -0.8537336866
 C         -2.8165965795        0.5442367093       -0.9115121853
 C         -3.9373150386        0.4360681142       -0.1774183379
 C         -5.0231659017        1.4689829507       -0.1028858777
 C         -4.7674603812        2.4597797590        1.0417395919
 C         -3.3511127881        3.0353747775        1.0565037299
 H         -3.2990510903        3.7455857914        1.8844720470
 H         -2.6419924118        2.2335803075        1.2749651916
 C         -2.9384417678        3.7349175247       -0.2458615757
 H         -2.4478419563        4.6779002884        0.0036114498
 H         -3.8254138913        3.9787880563       -0.8317347183
 C         -1.9610087880        2.9376813217       -1.1113645744
 H         -1.1151756065        2.6085575620       -0.5031064054
 H         -1.5722429295        3.6050783223       -1.8846791443
 C         -2.5441737981        1.7097317539       -1.8207085333
 H         -3.4469721989        1.9904081141       -2.3669930171
 H         -1.8006586065        1.3594909042       -2.5423705281
 H         -4.9381197333        1.9443094990        1.9897855011
 H         -5.4923099567        3.2721240279        0.9623738892
 H         -5.9714311635        0.9586653034        0.0747555463
 H         -5.0803359494        1.9994525970       -1.0513583575
 O         -4.1866236849       -0.6249001585        0.6314699424
 C         -3.2679712711       -1.6489839317        0.7598019834
 O         -3.6207791505       -2.5500166657        1.5485333359
 O         -0.7642722287       -0.4217249521       -1.5638123345
 C         -1.1370081481       -2.7768445421        0.2387639935
 C          0.2237671918       -2.3138823975        0.6969535813
 C          0.4666569127       -2.2709182832        2.0690446246
 C          1.6775454740       -1.8292401575        2.5683915442
 C          2.6832101063       -1.4156562208        1.7125586740
 C          2.4493472797       -1.4344527093        0.3448481962
 C          1.2318323506       -1.8847414858       -0.1531286278
 H          1.0713427741       -1.8581088577       -1.2165186986
 N          3.4524043652       -1.0273971271       -0.5520502371
 S          4.3386109953        0.3613497504       -0.2777716562
 O          5.0390451059        0.6040872536       -1.5180043285
 O          5.1614899177        0.1777103690        0.8921058722
 C          3.1556816258        1.6627814144        0.0129019963
 C          2.7642584645        1.9584359727        1.3029310557
 C          1.8272210687        2.9594246756        1.5046733893
 C          1.3043964761        3.6461405832        0.4201711645
 C          1.7088279404        3.3373569847       -0.8697945875
 C          2.6385478354        2.3326352223       -1.0781229947
 H          2.9842027101        2.0684139051       -2.0645118868
 H          1.2998416648        3.8725078783       -1.7115476632
 H          0.5787977668        4.4281182577        0.5806027953
 H          1.5092567419        3.2006340134        2.5063904829
 H          3.2036962205        1.4151360278        2.1228819397
 H          3.1627345224       -1.0676226921       -1.5185829847
 H          3.6390925975       -1.0830922918        2.0830305284
 H          1.8436326324       -1.8122622416        3.6349366646
 H         -0.3133414491       -2.5871038408        2.7478641366
 H         -1.5778004631       -3.3102516184        1.0944705005
 C         -1.2157162681       -3.7703233264       -0.9170219271
 C         -0.7488055801       -3.5209699119       -2.3188435836
 C         -0.0371607463       -4.5213436941       -1.4591523107
 H         -0.1630813664       -5.5695883073       -1.6861518669
 H          0.9410503846       -4.2698353073       -1.0797243409
 H         -1.3717679503       -3.8896862482       -3.1219348927
 H         -0.2816516500       -2.5775258570       -2.5465497877
 H         -2.1425111737       -4.3343777194       -0.8431073166
