  62
        -98.93750311
 C          1.0979014609        0.8394306609        0.9035417001
 C          1.7604916604        0.7376799008       -0.3431557202
 C          2.5025419708       -0.5125536589       -0.5950764002
 C          2.4417252116       -1.5160774987        0.2973496201
 C          3.0349189621       -2.9093707085        0.2706678302
 C          4.1822590718       -3.2523376083       -0.6767708502
 C          5.4905290817       -2.5133851877       -0.3999833109
 H          5.8908246022       -2.8580625873        0.5567233190
 H          6.2052699314       -2.7885145576       -1.1787272811
 C          5.3871618811       -0.9914409877       -0.3378428313
 H          4.7804495713       -0.6999425777        0.5219083389
 H          6.3923997210       -0.5949491473       -0.1716696918
 C          4.8244285403       -0.3222456783       -1.5909718612
 H          5.3846167300       -0.6528131983       -2.4675814814
 H          4.9771482399        0.7549100718       -1.4834934716
 C          3.3236887802       -0.5513786390       -1.8508620505
 H          2.9573394797        0.2644050607       -2.4812595706
 H          3.1470725004       -1.4788700492       -2.3914586402
 H          4.3744973523       -4.3219618182       -0.5545344000
 H          3.8749951013       -3.1045399587       -1.7080877601
 H          3.3461327826       -3.1188548781        1.2991807002
 H          2.1979870523       -3.5838276289        0.0553114808
 O          1.7044298520       -1.4110698687        1.4417942004
 C          1.0260609017       -0.2498542789        1.7716197504
 O          0.3975293822       -0.3184974289        2.8472592107
 H         -1.4727698593        0.4300386997        0.2424695013
 C         -1.4898008199        1.3702494895       -0.2874286790
 C         -0.6392699301        2.3874561800        0.1280115804
 C         -0.6634993009        3.5960845398       -0.5520967899
 C         -1.5003753914        3.7590520092       -1.6434706196
 C         -2.3077110712        2.7268536887       -2.0845458190
 C         -2.2962972604        1.5145678889       -1.4016447787
 N         -3.1077523201        0.4464012885       -1.8064512980
 S         -2.7039416594       -1.1388247713       -1.4665495278
 O         -1.2796318693       -1.3763087207       -1.5141029683
 O         -3.5051246894       -1.9084635618       -2.3960925372
 C         -3.3391144586       -1.3853792411        0.1782287025
 C         -2.5022659080       -1.8011056805        1.1936404323
 C         -3.0219492473       -1.9682399704        2.4676336426
 C         -4.3665629773       -1.7249805808        2.7003713831
 C         -5.1982123679       -1.3183426914        1.6672743833
 C         -4.6821318086       -1.1443077216        0.3937616831
 H         -5.2932925790       -0.8304775520       -0.4358214668
 H         -6.2437719679       -1.1324870918        1.8530126637
 H         -4.7657805969       -1.8532065907        3.6941073633
 H         -2.3652725469       -2.2720597899        3.2673169624
 H         -1.4567987880       -1.9717723901        0.9824990719
 H         -3.5588526806        0.5546028180       -2.7022350879
 H         -2.9343204016        2.8497691382       -2.9546817588
 H         -1.5068448020        4.6993046690       -2.1739666699
 H         -0.0063653111        4.3958574101       -0.2523310104
 C          0.2785629805        2.0643778207        1.2810044601
 H         -0.3490379490        1.7306702906        2.1243358804
 C          1.0836839003        3.2505187411        1.7854633394
 C          2.3991725506        3.0448469718        2.4745038889
 C          2.3513106098        3.7101884514        1.1334911288
 H          2.5426030094        4.7724171415        1.0846191184
 H          2.6970080597        3.1640377814        0.2710435388
 H          2.6253903308        3.6452445321        3.3428818487
 H          2.7780036711        2.0342212720        2.5303050190
 H          0.4425211801        4.0233759510        2.1984629395
 O          1.7486894896        1.6408651906       -1.2189422604
