  62
        -98.93645041
 C         -1.6200984401       -0.2766196607       -0.9121795000
 C         -2.9553265901       -0.5814572508       -1.2830562898
 C         -4.0005392201        0.2761160694       -0.7169245202
 C         -3.6582920800        1.2885850598        0.0998449594
 C         -4.6051135200        2.2609044601        0.7496671090
 C         -5.2358691500        1.7422129306        2.0493282692
 C         -6.2986697100        0.6572525706        1.8703702297
 H         -6.8082186500        0.5467281010        2.8297268298
 H         -7.0407616000        0.9926090803        1.1451418796
 C         -5.7439160201       -0.7101733196        1.4472266203
 H         -4.6690299901       -0.7434638796        1.6400335703
 H         -6.2019189801       -1.4932407893        2.0558490406
 C         -5.9944165901       -1.0705171202       -0.0171662896
 H         -7.0679271501       -1.1722390603       -0.1915358295
 H         -5.5279758701       -2.0387235103       -0.2165013292
 C         -5.4298071101       -0.0575345907       -1.0215850400
 H         -6.0385846201        0.8463889994       -1.0267688904
 H         -5.4618412401       -0.5074779711       -2.0169300398
 H         -5.7004231600        2.5954233108        2.5490159589
 H         -4.4406940900        1.3690854909        2.6988135394
 H         -4.0218555400        3.1540844301        0.9829506386
 H         -5.3918676800        2.5331220798        0.0455566989
 O         -2.3679040100        1.5595139098        0.4210778293
 C         -1.3149984700        0.7870072496       -0.0606771204
 O         -0.2017218800        1.1629485397        0.3439996294
 O         -3.2589796401       -1.5303248112       -2.0558785794
 C         -0.5271716201       -1.1781588310       -1.4757117096
 C          0.2906145099       -1.7551666906       -0.3499822594
 C         -0.1919343002       -2.9158465903        0.2562742211
 C          0.4594965598       -3.4882803199        1.3308215514
 C          1.6292922899       -2.9306392197        1.8165558411
 C          2.1190096499       -1.7741001300        1.2258439006
 C          1.4455199299       -1.1862429804        0.1628878904
 H          1.8305325199       -0.2639277306       -0.2297024000
 N          3.2947951899       -1.1672833198        1.6914059604
 S          4.3820624399       -0.5491013703        0.5816745101
 O          4.3667497099       -1.3109970008       -0.6462014296
 O          5.6462516999       -0.5212187500        1.2888754301
 C          3.8619730700        1.1249519596        0.2811498494
 C          3.4080740600        1.8845987501        1.3402719791
 C          3.0442382700        3.2008184200        1.1098407985
 C          3.1473857500        3.7344984594       -0.1655374917
 C          3.6094971900        2.9594862890       -1.2172106114
 C          3.9712616800        1.6404463991       -0.9946778708
 H          4.3178151999        0.9983277787       -1.7886338506
 H          3.6823446100        3.3730467286       -2.2102959516
 H          2.8603483601        4.7593476394       -0.3416805921
 H          2.6757778101        3.8044277803        1.9236034583
 H          3.3334317100        1.4368417705        2.3172063493
 H          3.7588276799       -1.6495147695        2.4469871106
 H          2.1526599199       -3.3802436894        2.6469366213
 H          0.0623810998       -4.3827582597        1.7867115017
 H         -1.1011587302       -3.3621727104       -0.1228087787
 H         -1.0875993302       -2.0208653012       -1.9108857392
 C          0.1715719799       -0.5193783315       -2.6594220699
 C          1.0269272299        0.7086349985       -2.5869019104
 C          1.6372100299       -0.6090454117       -2.9620831999
 H          1.9250367199       -0.7546513821       -3.9934092998
 H          2.2921687199       -1.1010864614       -2.2593014697
 H          0.9005732399        1.4517470082       -3.3617923907
 H          1.2267914799        1.1361628489       -1.6179297306
 H         -0.4843217701       -0.5596900519       -3.5263141299
