  62
        -98.93984967
 C         -0.8290688028       -1.5375778618        0.3816748775
 C         -1.4485773121       -0.9404526001       -0.7424025575
 C         -2.3758950822        0.1820588555       -0.4726502663
 C         -2.6423132439        0.5202754866        0.8016623619
 C         -3.5779679299        1.5861190200        1.3065780633
 C         -5.0576580029        1.1844360651        1.1848266732
 C         -5.4368117937        0.5004802241       -0.1262701938
 H         -4.8119568686       -0.3838210956       -0.2644959954
 H         -6.4703643115        0.1563122314       -0.0349069308
 C         -5.3477157402        1.3811911970       -1.3702166359
 H         -6.0198689367        2.2346174122       -1.2548145412
 H         -5.7055543022        0.7883676549       -2.2159260226
 C         -3.9537997236        1.9084913603       -1.7163749826
 H         -3.6719938791        2.7301046501       -1.0628769013
 H         -4.0017512780        2.3235373869       -2.7277264563
 C         -2.8546092661        0.8506030191       -1.7377744928
 H         -3.1492162825        0.0407857375       -2.4151853238
 H         -1.9540712846        1.2920763440       -2.1875846824
 H         -5.6699884626        2.0771019405        1.3220911292
 H         -5.2852265494        0.4901018960        1.9971339836
 H         -3.3841424540        2.5230119248        0.7917166527
 H         -3.3461104282        1.7347020708        2.3635609569
 O         -2.0862265815       -0.1404421826        1.8575214113
 C         -1.1498426995       -1.1400308425        1.6809572406
 O         -0.6875836897       -1.6009266765        2.7440565004
 O         -1.2526607865       -1.3006935772       -1.9333641250
 C          0.2369855076       -2.6114035600        0.2763828235
 C          1.6051553597       -2.0337780473       -0.0136790473
 C          2.7470837355       -2.6737876715        0.4591232604
 C          4.0044961755       -2.1686129693        0.1860767004
 C          4.1517617561       -1.0017738744       -0.5436069635
 C          3.0189160409       -0.3521592922       -1.0160872380
 C          1.7593625015       -0.8756265200       -0.7587522478
 H          0.9009473155       -0.3639700392       -1.1610319812
 N          3.1176176939        0.8455401570       -1.7444706789
 S          2.0783430892        2.0957878469       -1.3467967690
 O          0.7763925945        1.8904705576       -1.9260475265
 O          2.7761889218        3.2889215676       -1.7787677593
 C          1.9897138424        2.0551970588        0.4341651299
 C          3.1427923106        2.3177155293        1.1481861747
 C          3.1047201562        2.2493037089        2.5307747105
 C          1.9208432387        1.9182126782        3.1727811915
 C          0.7701765235        1.6656193485        2.4428783557
 C          0.8036587754        1.7324500473        1.0588995471
 H         -0.0698638483        1.5339309532        0.4564395215
 H         -0.1478526906        1.3965730893        2.9413392915
 H          1.8900388548        1.8552612510        4.2489963310
 H          3.9955204137        2.4495236183        3.1039238291
 H          4.0415932233        2.5833713794        0.6158947080
 H          4.0609582114        1.1846531418       -1.8678733234
 H          5.1315240884       -0.5982682310       -0.7477291293
 H          4.8800610656       -2.6789319211        0.5566265268
 H          2.6427804791       -3.5709312216        1.0497313690
 H          0.2819410398       -3.0843217170        1.2676719434
 C         -0.0907511902       -3.6839137210       -0.7474748679
 C          0.3658153285       -5.0932299240       -0.5274365852
 C         -1.0871109541       -4.7479662465       -0.4020261205
 H         -1.7715714354       -5.0795108391       -1.1681813309
 H         -1.5207278541       -4.7200725723        0.5874351968
 H          0.6859525673       -5.6675271337       -1.3831258721
 H          0.9065751545       -5.3155088847        0.3795850419
 H         -0.1001416645       -3.3082641518       -1.7627560548
