  62
        -98.94242240
 C          1.7957251706        0.0637507901       -0.8142294992
 C          3.0807703707        0.4259714901       -1.2826630589
 C          4.2017408906       -0.3393305604       -0.7257447692
 C          3.9629892103       -1.3247279308        0.1590699402
 C          4.9997351502       -2.2071928713        0.8000625098
 C          5.6670613502       -1.5905040821        2.0371799402
 C          6.6505288004       -0.4554324621        1.7491631609
 H          7.2022213203       -0.2673472027        2.6724244510
 H          7.3724657204       -0.7823571918        1.0001535807
 C          5.9906118306        0.8536965982        1.2939654915
 H          4.9272853906        0.8314795083        1.5440083815
 H          6.4295903507        1.6922119379        1.8394531820
 C          6.1422684808        1.1544426290       -0.1972172383
 H          7.1969026008        1.3114310290       -0.4342245381
 H          5.6070469109        2.0819892993       -0.4166515378
 C          5.5914521207        0.0600702196       -1.1208773489
 H          5.5461590008        0.4600678702       -2.1368838587
 H          6.2535861405       -0.8054489005       -1.1151393294
 H          4.8869987302       -1.2335089024        2.7135480903
 H          6.2088520400       -2.3902249925        2.5474095998
 H          4.4840431100       -3.1196027314        1.1068515692
 H          5.7625973002       -2.4691113910        0.0663700997
 O          2.7097081803       -1.6535874208        0.5704687599
 C          1.5983992104       -0.9581508604        0.1147735102
 O          0.5181217703       -1.3436225805        0.5985909099
 O          3.2810262409        1.3453342006       -2.1214986284
 C          0.5841384408        0.8230423906       -1.3234750289
 C         -0.1545195392        1.4325912900       -0.1582684586
 C          0.5548065509        2.2022181994        0.7607876419
 C         -0.0765595391        2.7413802689        1.8642308921
 C         -1.4253509592        2.5185007690        2.0801068519
 C         -2.1441578492        1.7569675296        1.1659376215
 C         -1.5101857392        1.2343159901        0.0456004012
 H         -2.0900022493        0.6753629006       -0.6683849391
 N         -3.4944332193        1.4850961197        1.3941642112
 S         -4.5984858293        0.8940233705        0.3076866608
 O         -4.3523231891        1.3907512812       -1.0259607689
 O         -5.8843261593        1.2357271004        0.8771616009
 C         -4.4388920196       -0.8860142295        0.3156246998
 C         -3.2879249297       -1.5270533999        0.7271259496
 C         -3.2429261900       -2.9132474199        0.6784061988
 C         -4.3371824000       -3.6331579795        0.2273648683
 C         -5.4883909399       -2.9748659491       -0.1787410914
 C         -5.5392334297       -1.5917333391       -0.1359786906
 H         -6.4151872996       -1.0402996988       -0.4379274804
 H         -6.3416277800       -3.5334140288       -0.5287573618
 H         -4.2922818002       -4.7103459495        0.1922471577
 H         -2.3393791101       -3.4137350802        0.9894281986
 H         -2.4286917097       -0.9722219003        1.0683072399
 H         -3.9147765193        1.9032414493        2.2077494914
 H         -1.9163808092        2.9236655986        2.9514490421
 H          0.4859799809        3.3352233884        2.5691066125
 H          1.6121532609        2.3645845793        0.6003457021
 H          0.9838478110        1.6362354908       -1.9472320684
 C         -0.2775871993       -0.0755003288       -2.1851234294
 C         -1.1731247291        0.5143709919       -3.2317564292
 C          0.0563722808       -0.2407518581       -3.6361170495
 H         -0.0600386393       -1.2162449078       -4.0837979900
 H          0.8977051309        0.3181886020       -4.0190159791
 H         -2.1403996892        0.0640262421       -3.3983505695
 H         -1.1713227989        1.5883172720       -3.3422694486
 H         -0.6270682395       -0.9532779291       -1.6520708899
