  62
        -98.94573078
 C         -1.1178528831       -1.8859400912       -0.3651192102
 C         -1.2557608024       -0.6288105530       -1.0048336313
 C         -2.5183915988        0.0793602913       -0.7510600238
 C         -3.3989663790       -0.4064012314        0.1404790064
 C         -4.7189675741        0.2103703149        0.5164308886
 C         -4.6082067136        1.3303337323        1.5597389986
 C         -4.0402420981        2.6521208890        1.0412577497
 H         -4.5780943406        2.9494335440        0.1402125427
 H         -4.2403909804        3.4062731885        1.8051575453
 C         -2.5316566411        2.6321010405        0.7579666158
 H         -2.0618494449        1.7917418071        1.2756313156
 H         -2.0737159213        3.5375062314        1.1650705252
 C         -2.1603148337        2.5659040538       -0.7228887800
 H         -2.4766066125        3.4844818581       -1.2230507224
 H         -1.0723619863        2.4957660534       -0.7913052358
 C         -2.7543333024        1.3706968951       -1.4758209879
 H         -3.8217742469        1.5201898652       -1.6387026354
 H         -2.2562092388        1.3013973374       -2.4461394579
 H         -3.9948741054        0.9744297805        2.3911543731
 H         -5.6137265756        1.5182834270        1.9439621011
 H         -5.2149747786        0.5913287734       -0.3768888516
 H         -5.3278920942       -0.5930520437        0.9367194006
 O         -3.1851133585       -1.5683825860        0.8135801974
 C         -2.0620146360       -2.3362722228        0.5621192749
 O         -2.0168825046       -3.3993336404        1.2163589706
 H          1.1630008789       -0.4032836282       -0.0956987333
 C          1.6341707601       -1.1758375863        0.4891400602
 C          1.1943200844       -2.4857936212        0.3712352952
 C          1.8116207281       -3.4713348137        1.1319836856
 C          2.8372466332       -3.1463905845        2.0019707704
 C          3.2512008199       -1.8341112729        2.1421039384
 C          2.6398378838       -0.8420972186        1.3834469393
 N          3.0387215021        0.4981087478        1.4915901778
 S          1.9157214925        1.7351907891        1.3725689388
 O          2.4544392798        2.8008328765        2.1954522743
 O          0.5890318523        1.2880355076        1.7286383454
 C          1.9798797040        2.2750804444       -0.3240819319
 C          2.6882823001        1.5808998954       -1.2819723887
 C          2.7033477991        2.0642460614       -2.5814717550
 C          2.0205490058        3.2267350462       -2.8996275686
 C          1.3231480210        3.9202642667       -1.9230914899
 C          1.3024733116        3.4413059336       -0.6233607055
 H          0.7768283709        3.9508586261        0.1692634749
 H          0.7917236961        4.8257731585       -2.1685683544
 H          2.0314540037        3.5948059021       -3.9134899392
 H          3.2461621443        1.5258299635       -3.3418234563
 H          3.2116520885        0.6777754606       -1.0148489347
 H          3.7230242236        0.6885019997        2.2085131866
 H          4.0366287926       -1.5754153546        2.8359364053
 H          3.3085834084       -3.9193953784        2.5897971055
 H          1.4699602374       -4.4928388838        1.0537868587
 C          0.0643512688       -2.8202798258       -0.5722414243
 H         -0.2992887200       -3.8239475895       -0.3103718418
 C          0.5670756455       -2.8498176017       -2.0031091806
 C          1.3079043212       -4.0560296423       -2.4924661569
 C         -0.0777672407       -3.7741879661       -2.9895496367
 H         -0.2064041599       -3.4329328876       -4.0055039689
 H         -0.8845534825       -4.3993307944       -2.6346122900
 H          2.1356834614       -3.9108273487       -3.1691698035
 H          1.4408026346       -4.8775958281       -1.8050794806
 H          0.8831576518       -1.8797568250       -2.3625934401
 O         -0.3965015610       -0.1063206747       -1.7632657790
