  62
        -98.93636757
 C         -1.7795358764       -1.3118659959       -0.0483765526
 C         -3.1083524500       -1.1689584449        0.4298570228
 C         -3.9223281017       -0.0985169521       -0.1683719820
 C         -3.3699581285        0.7089366221       -1.0892128070
 C         -4.0070041663        1.8443284902       -1.8506427192
 C         -4.9349720422        2.7876138136       -1.0738014954
 C         -4.5402797822        3.0253445771        0.3912272921
 H         -3.5409741984        2.6292900397        0.5796387376
 H         -4.5060849143        4.0999299769        0.5796335079
 C         -5.5281419371        2.4065065359        1.3830978679
 H         -5.4136996197        2.9031443158        2.3496271359
 H         -6.5445556578        2.6023090866        1.0343294738
 C         -5.3625246841        0.9064120463        1.6232653115
 H         -4.4424000954        0.7195471970        2.1834110526
 H         -6.1918005820        0.5723455239        2.2515584456
 C         -5.3225141824        0.0338911598        0.3581387030
 H         -6.0036350345        0.4098590692       -0.4016654525
 H         -5.6372412160       -0.9753569769        0.6378594485
 H         -4.9372678579        3.7384343493       -1.6095775493
 H         -5.9547905904        2.4069914837       -1.1095165828
 H         -3.1714042783        2.4131492716       -2.2655606301
 H         -4.5561116408        1.4194181294       -2.6962381743
 O         -2.0791737246        0.5618645680       -1.4949695254
 C         -1.2545541845       -0.4451710622       -1.0073919533
 O         -0.1177568680       -0.4366732831       -1.5135912069
 O         -3.6009127179       -1.9151150911        1.3165935894
 C         -0.9352688350       -2.4100708716        0.5769835689
 C          0.3813065180       -1.8374978787        1.0316722944
 C          0.4563322227       -1.1441150823        2.2358999100
 C          1.6404777639       -0.5545891278        2.6387625866
 C          2.7666836838       -0.6209791722        1.8368011025
 C          2.6932002336       -1.2929996451        0.6237795372
 C          1.5150811137       -1.9193733806        0.2400311191
 H          1.4697731008       -2.4334769604       -0.7070920485
 N          3.8097057532       -1.3249995624       -0.2266664083
 S          4.7689099788        0.0362329180       -0.3444676233
 O          5.3476015390       -0.0224641866       -1.6696609547
 O          5.7193922472        0.0435922541        0.7425053821
 C          3.7114356380        1.4706164662       -0.1990065311
 C          4.1875847467        2.5516538831        0.5174996353
 C          3.4076601337        3.6918789318        0.6181187995
 C          2.1641945869        3.7318177922        0.0061814108
 C          1.7006213681        2.6382486724       -0.7074332705
 C          2.4788407557        1.4964294710       -0.8198465155
 H          2.1036729691        0.6418547026       -1.3603631166
 H          0.7294761232        2.6516951625       -1.1771943154
 H          1.5521173044        4.6163877865        0.0871926146
 H          3.7687592416        4.5418232047        1.1745461574
 H          5.1544367952        2.4726364132        0.9879421470
 H          3.6132437341       -1.7109562905       -1.1386026524
 H          3.6959267753       -0.1596453180        2.1307776104
 H          1.6870864529       -0.0286534741        3.5800903059
 H         -0.4292855483       -1.0662787430        2.8511535521
 H         -1.5050505510       -2.7162615978        1.4687305587
 C         -0.7717486807       -3.6563097115       -0.2807209792
 C         -1.9316487159       -4.1958877357       -1.0615808868
 C         -0.7448328241       -3.6289230555       -1.7783846320
 H         -0.0805469051       -4.3126509346       -2.2873393810
 H         -0.8481767830       -2.6757563535       -2.2725931298
 H         -2.0887493395       -5.2636452870       -1.0846520801
 H         -2.8449878113       -3.6189993824       -1.0533834286
 H         -0.1302579001       -4.3893104115        0.1997516422
