  62
        -98.94132250
 C         -2.4846953222       -1.3288937595        0.0142826701
 C         -3.1524885988       -0.5961866900        1.0307994891
 C         -3.9376749377        0.5619376065        0.5935684769
 C         -3.9973520001        0.8685948187       -0.7145308623
 C         -4.7707172083        2.0051950316       -1.3256848752
 C         -4.0328829907        3.3506415955       -1.2908150433
 C         -3.9433157042        4.0077679052        0.0871156334
 H         -3.6055983739        5.0340956165       -0.0696553018
 H         -4.9380496494        4.0556159582        0.5313254353
 C         -2.9763239110        3.3156215083        1.0582139491
 H         -2.2975918867        2.6653132594        0.4998970925
 H         -2.3548481965        4.0670892060        1.5507993648
 C         -3.6562085481        2.4991106677        2.1576934154
 H         -4.2230411885        3.1662612656        2.8108864888
 H         -2.8771218207        2.0207538939        2.7567512087
 C         -4.5986857321        1.4036833252        1.6426686658
 H         -4.8536695410        0.7499995097        2.4802862508
 H         -5.5140314448        1.8478049550        1.2521762581
 H         -3.0259325934        3.2091123801       -1.6915290216
 H         -4.5641321486        4.0309739066       -1.9605426156
 H         -4.9467328296        1.7359937709       -2.3694035843
 H         -5.7338852045        2.1043093157       -0.8242961384
 O         -3.3528125870        0.1389540917       -1.6613944197
 C         -2.5634187252       -0.9559177425       -1.3274109656
 O         -2.0138487358       -1.4860148643       -2.3127751823
 O         -3.1024314559       -0.9082879692        2.2500784229
 C         -1.6605171373       -2.5219787483        0.4699281425
 C         -0.2262590986       -2.1094431866        0.6814791852
 C          0.4029104499       -2.2839875044        1.9078089449
 C          1.7073246625       -1.8597534037        2.0967343608
 C          2.4081129116       -1.2528595435        1.0698614371
 C          1.7859891011       -1.0702530742       -0.1583799040
 C          0.4822836776       -1.5007389733       -0.3464096971
 H          0.0020556312       -1.3528796178       -1.3031687849
 N          2.4886145724       -0.4381597183       -1.2078864883
 S          2.8994645577        1.1706620243       -0.9216127745
 O          1.9634469020        1.7975756669       -0.0150566875
 O          3.0338471419        1.7756197123       -2.2288494155
 C          4.5067876032        1.0590087672       -0.1643840011
 C          4.7027256404        1.5391645170        1.1154949164
 C          5.9634164962        1.4360443704        1.6832072304
 C          6.9989134324        0.8578488970        0.9649292596
 C          6.7858413388        0.3830272284       -0.3209328922
 C          5.5286676780        0.4841371511       -0.8947950538
 H          5.3198051906        0.1334154851       -1.8916783962
 H          7.5935904164       -0.0653901385       -0.8764820870
 H          7.9781049533        0.7771219244        1.4098397416
 H          6.1309730136        1.8053080527        2.6822040805
 H          3.8655166698        1.9750804585        1.6368952978
 H          1.9979527592       -0.5004142451       -2.0901199031
 H          3.4229080632       -0.9181027550        1.2109903310
 H          2.1825439426       -2.0005417715        3.0553812405
 H         -0.1444090433       -2.7377790347        2.7209470853
 H         -2.0774657601       -2.7831303855        1.4552914487
 C         -1.8172485088       -3.7405429358       -0.4298160502
 C         -0.6985772739       -4.3397883551       -1.2239122531
 C         -1.2193780682       -5.0525937801       -0.0145859906
 H         -1.7994415407       -5.9527226380       -0.1492347469
 H         -0.5972609043       -5.0533141440        0.8678125499
 H         -0.9360090798       -4.7287103459       -2.2024778937
 H          0.2766140177       -3.8828674332       -1.1644992542
 H         -2.7996201304       -3.7787273073       -0.8895001500
