  62
        -98.95003649
 C          1.9047940187        1.0410490807        0.0197918709
 C          1.3278487086        1.8137317005       -1.0181689792
 C          0.2552180979        2.7309317298       -0.6148671095
 C         -0.0859169825        2.8312426195        0.6828243604
 C         -1.1122235233        3.7673876488        1.2620097702
 C         -2.5559552030        3.2509748280        1.1996073297
 C         -3.1820423925        3.2464922978       -0.1949735606
 H         -4.2521940924        3.0725094072       -0.0683508309
 H         -3.0627633829        4.2288040879       -0.6532873004
 C         -2.6165279616        2.1684151083       -1.1288179905
 H         -2.0919318113        1.4107792485       -0.5427175404
 H         -3.4328018911        1.6497452079       -1.6378201108
 C         -1.6711474915        2.6837150589       -2.2140511701
 H         -1.2949844108        1.8137386792       -2.7600960001
 H         -2.2240262616        3.3112413187       -2.9174339902
 C         -0.4701508521        3.4820446396       -1.6890779996
 H         -0.7979768328        4.4551539093       -1.3223820996
 H          0.2267225981        3.6354037201       -2.5170859794
 H         -2.5884184725        2.2395208379        1.6104812295
 H         -3.1588365835        3.8951342276        1.8435090495
 H         -0.8429860737        3.9084669288        2.3109979303
 H         -1.0492505236        4.7310971689        0.7554883903
 O          0.5141745376        2.0939695097        1.6540031505
 C          1.4848467482        1.1484339203        1.3453786607
 O          1.8851807182        0.4944713704        2.3262068608
 O          1.7003920990        1.7465345309       -2.2204581591
 C          2.9591019894        0.0049164513       -0.3348022089
 C          2.3817501401       -1.3656453490       -0.0741871193
 C          2.9270031903       -2.2844588488        0.8120143808
 C          2.2935594910       -3.4949114692        1.0368749004
 C          1.1053041713       -3.8048768998        0.4015425500
 C          0.5557113311       -2.8964538600       -0.4976798501
 C          1.2095945705       -1.6996152496       -0.7435412497
 H          0.7877699104       -1.0032944698       -1.4542302098
 N         -0.6441086785       -3.1898205106       -1.1683524805
 S         -1.8556705391       -2.0545963113       -1.3528484808
 O         -2.9578399785       -2.8011575018       -1.9189923212
 O         -1.3778350195       -0.9384532409       -2.1247026905
 C         -2.2895009099       -1.5400272617        0.2994373291
 C         -1.4429877206       -0.6960919313        0.9901703695
 C         -1.7645310213       -0.3349643217        2.2891974295
 C         -2.9294748312       -0.8119739724        2.8703615390
 C         -3.7737139005       -1.6542209528        2.1624424586
 C         -3.4494794898       -2.0287111825        0.8684411587
 H         -4.0746447993       -2.6816735227        0.2812823184
 H         -4.6799709704       -2.0217019734        2.6161241683
 H         -3.1771679917       -0.5225899027        3.8794620690
 H         -1.0925051018        0.3121002186        2.8325453198
 H         -0.5439598307       -0.3311767908        0.5174637199
 H         -1.0413394881       -4.0882108409       -0.9341347608
 H          0.6052418718       -4.7418879701        0.5940055897
 H          2.7246018411       -4.2010750990        1.7300253405
 H          3.8394210700       -2.0498919084        1.3342674911
 H          3.1155388297        0.1091673516       -1.4186114189
 C          4.2661705990        0.2734641020        0.3776199215
 C          5.5464349595       -0.2632809272       -0.1869797981
 C          5.2571857687        1.2055801826       -0.2497650980
 H          5.8158039381        1.8710079029        0.3911408123
 H          4.9980487088        1.6371772226       -1.2057671180
 H          6.3086143895       -0.6060802768        0.4961296421
 H          5.4882229001       -0.8303992271       -1.1037876282
 H          4.1577801986        0.3142169018        1.4550982215
