  62
        -98.94505168
 C         -1.4337509809       -1.5591528398       -0.3607914116
 C         -2.6602851109       -1.4389060302        0.3438418386
 C         -3.5742142507       -0.3913727996       -0.1214477104
 C         -3.2386078107        0.3612360513       -1.1846516998
 C         -4.0684718405        1.4608474319       -1.7901804188
 C         -3.9091654502        2.8212306013       -1.0971290776
 C         -4.5501075901        2.9272136802        0.2870054025
 H         -4.5445258599        3.9837721600        0.5619320334
 H         -5.5925254502        2.6128348104        0.2275329723
 C         -3.8307989502        2.1273722892        1.3824243518
 H         -2.8255530403        1.8642547993        1.0449375315
 H         -3.7157519100        2.7501051484        2.2721802723
 C         -4.5563282404        0.8525228589        1.8135462907
 H         -5.5111606503        1.1118850687        2.2761564410
 H         -3.9439879704        0.3475976482        2.5649007102
 C         -4.8198410506       -0.1400850501        0.6730799099
 H         -5.1347174108       -1.0907518404        1.1100598891
 H         -5.6166191506        0.2290954906        0.0278252402
 H         -2.8447507302        3.0549767710       -1.0231488575
 H         -4.3679483701        3.5714574819       -1.7453068170
 H         -3.7412057306        1.5622504427       -2.8273816787
 H         -5.1193810906        1.1702776821       -1.7853484890
 O         -2.0748944607        0.1850224816       -1.8629460700
 C         -1.1328651709       -0.7518435689       -1.4561434409
 O         -0.1024761409       -0.7560225884       -2.1575749910
 O         -2.9735686209       -2.1725701009        1.3181946580
 C         -0.4242151211       -2.5684589704        0.1643817275
 C          0.5900385191       -1.8217032613        0.9996408481
 C          0.2529681593       -1.4944133623        2.3115952284
 C          1.1320879394       -0.7969440332        3.1163283389
 C          2.3654139695       -0.4060684730        2.6253935292
 C          2.7094090493       -0.7183544919        1.3159729689
 C          1.8245234892       -1.4222356511        0.5078454783
 H          2.1099887691       -1.6395173402       -0.5084976219
 N          3.9654957694       -0.3364255817        0.8055256691
 S          4.0188985094        0.5667872695       -0.6054286101
 O          3.6963919492       -0.2618769895       -1.7358724708
 O          5.3419516595        1.1553304493       -0.6036017097
 C          2.7944015597        1.8359354695       -0.3456657089
 C          1.5122452996        1.6563530801       -0.8197556790
 C          0.5524053898        2.6114156700       -0.5213686981
 C          0.8860440500        3.7202335493        0.2394537528
 C          2.1831781901        3.8883139687        0.7019036129
 C          3.1464480899        2.9362224488        0.4129938520
 H          4.1672556999        3.0324691383        0.7463210620
 H          2.4420829503        4.7548203182        1.2887648636
 H          0.1325371301        4.4568425793        0.4704236935
 H         -0.4527771403        2.4705916805       -0.8890500582
 H          1.2762187994        0.7852979107       -1.4112065597
 H          4.5658915895        0.0901776276        1.4979197195
 H          3.0601157396        0.1337568164        3.2509151596
 H          0.8573593295       -0.5552623440        4.1316958192
 H         -0.7150941308       -1.7937999725        2.6875227182
 H         -0.9975196111       -3.2129649509        0.8458688470
 C          0.1912576887       -3.4387658696       -0.9081301033
 C          0.8892641585       -4.7005176400       -0.4997326444
 C         -0.4270384315       -4.7691820492       -1.2124557044
 H         -0.4429002816       -5.1061178683       -2.2381788747
 H         -1.2994706315       -5.0585055695       -0.6446780546
 H          1.7814662384       -4.9906104397       -1.0333429647
 H          0.9086072586       -4.9410166409        0.5527056854
 H          0.6006548388       -2.8844570389       -1.7429666728
