  62
        -98.94444262
 C         -1.9571212692       -1.4072365399       -0.0311041496
 C         -2.6847229095       -0.6193386793        0.9016862596
 C         -3.4704692496        0.4923297602        0.3524633185
 C         -3.5007596193        0.6771194691       -0.9794514616
 C         -4.2277268093        1.7891024584       -1.6779355627
 C         -3.3155099295        3.0079493284       -1.8765420335
 C         -2.5588990198        3.4178785595       -0.6133086836
 H         -1.8715136397        2.6130277898       -0.3421402729
 H         -1.9551204099        4.2928100494       -0.8648252542
 C         -3.4572030201        3.7413275704        0.5890890659
 H         -3.1011028503        4.6627341408        1.0545146352
 H         -4.4771257601        3.9246137799        0.2492373055
 C         -3.4725586302        2.6670690412        1.6787118968
 H         -3.9600313304        3.0876084519        2.5620037363
 H         -2.4477090802        2.4124957516        1.9603620372
 C         -4.2090171499        1.3686970508        1.3243225677
 H         -4.3097869700        0.7814120816        2.2415326581
 H         -5.2092626099        1.6009097204        0.9533895373
 H         -3.9233714395        3.8430535080       -2.2290830243
 H         -2.5834062793        2.7704769979       -2.6522331531
 H         -5.1021386295        2.0674754188       -1.0929304731
 H         -4.5554169091        1.4272662976       -2.6539967525
 O         -2.8171150490       -0.1109609615       -1.8447958609
 C         -2.0065757690       -1.1469440610       -1.4004180499
 O         -1.4050392487       -1.7280165017       -2.3275965993
 O         -2.6776575998       -0.8420959083        2.1409454198
 C         -1.1307759192       -2.5428347393        0.5502470215
 C          0.3177430807       -2.1481355290        0.7173043015
 C          0.9354890005       -2.2000004779        1.9612422716
 C          2.2644491104       -1.8398445776        2.1046464016
 C          2.9992211405       -1.4086819984        1.0150584214
 C          2.3843388408       -1.3362362695       -0.2288218888
 C          1.0570625109       -1.7133092898       -0.3734070687
 H          0.5883078211       -1.6617384306       -1.3449873389
 N          3.1083728510       -0.8639730102       -1.3362630190
 S          4.0598431307        0.4943901001       -1.1202352999
 O          4.0847189309        1.1551382890       -2.4062716604
 O          5.3436925907        0.1003654707       -0.5944473493
 C          3.2125715303        1.5045911309        0.0844889091
 C          1.9184899403        1.9063190705       -0.1816322015
 C          1.2538748000        2.6835782212        0.7529116178
 C          1.8889219397        3.0438319122        1.9315562476
 C          3.1899781997        2.6371422626        2.1815953082
 C          3.8598608200        1.8597268519        1.2506453390
 H          4.8710400800        1.5196708922        1.4045355895
 H          3.6823988195        2.9204758434        3.0977123781
 H          1.3636219995        3.6454597727        2.6563456470
 H          0.2418969400        3.0030807709        0.5601761173
 H          1.4470865406        1.6122931997       -1.1066910813
 H          2.5608080211       -0.8041902310       -2.1823056892
 H          4.0366734805       -1.1302696381        1.1058144214
 H          2.7330824902       -1.8917072267        3.0752409218
 H          0.3636455803       -2.5151683473        2.8213426518
 H         -1.5462326294       -2.7128075486        1.5525871115
 C         -1.2368385988       -3.8353429300       -0.2359311975
 C         -0.9347661388       -5.1312325894        0.4521784136
 C         -2.3452188188       -4.7942023499        0.0735449730
 H         -2.8057706385       -5.3292851406       -0.7433329267
 H         -3.0340551190       -4.5244135594        0.8608747227
 H         -0.4223937586       -5.9012022398       -0.1038725457
 H         -0.6683599690       -5.0930620985        1.4974520336
 H         -0.9419196986       -3.7347771508       -1.2723500775
