  62
        -98.93928245
 C          1.9985841709        0.9044565321        0.0306786272
 C          2.3302096997       -0.0618746131        1.0050943126
 C          2.4317404707       -1.4566163311        0.5449194822
 C          2.1953665818       -1.7424414081       -0.7492708580
 C          2.1607053725       -3.0665005327       -1.4846860437
 C          2.7620496591       -4.3244745642       -0.8627093076
 C          4.2806990671       -4.2934517056       -0.6951499847
 H          4.5827553458       -5.1992095247       -0.1650393227
 H          4.7402137702       -4.3174889544       -1.6862741376
 C          4.8368568132       -3.0778252028        0.0418675828
 H          5.9230054067       -3.1889400225        0.0981332575
 H          4.6347535217       -2.1740360491       -0.5365221006
 C          4.3159252734       -2.8815921907        1.4643671690
 H          4.9131143823       -2.0914020013        1.9269039398
 H          4.4662236996       -3.7960058642        2.0412431289
 C          2.8377469827       -2.4673441983        1.5787017780
 H          2.6942327107       -1.9842504781        2.5498556804
 H          2.1768062848       -3.3308413001        1.5475892673
 H          2.5207870552       -5.1493426169       -1.5387411690
 H          2.2783216261       -4.5426118405        0.0849120070
 H          1.1011934092       -3.2532001651       -1.6952211115
 H          2.6389369747       -2.8810010714       -2.4518609092
 O          1.8753447388       -0.7727810388       -1.6559516910
 C          1.7531572477        0.5573694796       -1.2963782940
 O          1.4465790003        1.3187530105       -2.2344120960
 O          2.5258953456        0.2264738620        2.2185341954
 C          1.8196851339        2.3518606243        0.4486200009
 C          0.4129288038        2.7966468262        0.1300990029
 C          0.1073054848        4.0319917248       -0.4260026955
 C         -1.2041151815        4.3579764696       -0.7269169166
 C         -2.2301481574        3.4620104844       -0.4926159747
 C         -1.9365664922        2.2308515832        0.0842331324
 C         -0.6276379006        1.9190224031        0.4082811420
 H         -0.4122525978        0.9578582313        0.8537034961
 N         -2.9562337779        1.3026224924        0.3634207264
 S         -2.5978103685       -0.3423744877        0.2272460900
 O         -1.9554169286       -0.7800591471        1.4423687225
 O         -1.8933124310       -0.6114570161       -1.0064460310
 C         -4.2506281358       -1.0099817613        0.1575560566
 C         -4.9627510191       -1.1333081183        1.3358868203
 C         -6.2612279835       -1.6148211342        1.2865266023
 C         -6.8233380810       -1.9624347623        0.0669303072
 C         -6.0957758388       -1.8355572244       -1.1067614755
 C         -4.7968434435       -1.3529126155       -1.0645903440
 H         -4.1897985366       -1.2425174476       -1.9490819901
 H         -6.5335625286       -2.1095431560       -2.0530610405
 H         -7.8339922693       -2.3371704634        0.0310395910
 H         -6.8287849931       -1.7172211291        2.1972494760
 H         -4.4794687970       -0.8588281905        2.2589455197
 H         -3.8235645030        1.5267637507       -0.1061169635
 H         -3.2485110764        3.7086971250       -0.7516804287
 H         -1.4273586176        5.3178905351       -1.1673394635
 H          0.8971957297        4.7339782760       -0.6374760003
 H          1.9467993610        2.3605474077        1.5420746083
 C          2.8871773408        3.2261891242       -0.1756373327
 C          3.3722537821        4.4546000129        0.5331444269
 C          4.2538032062        3.2468996425        0.4386521057
 H          5.1122311761        3.2809896101       -0.2151787049
 H          4.4043471231        2.6496361768        1.3261874348
 H          3.6299785101        5.3215365107       -0.0562716238
 H          2.9317927225        4.6848696833        1.4913951133
 H          2.8235086210        3.2458134854       -1.2580112428
