  62
        -98.94665815
 C         -1.4699753432       -1.4600070488       -0.4326489803
 C         -2.7386099472       -1.3871671648        0.1956378264
 C         -3.5387884807       -0.1967765896       -0.1094105639
 C         -3.0484947441        0.7405102447       -0.9411399561
 C         -3.7508701383        2.0039525184       -1.3604639728
 C         -3.6129979580        3.1633427273       -0.3639190726
 C         -4.4119220674        3.0102990667        0.9307406069
 H         -4.3939600102        3.9787070215        1.4348658878
 H         -5.4525221729        2.7883660552        0.6921802572
 C         -3.8632675406        1.9444238368        1.8898487943
 H         -3.8263912480        2.3495501846        2.9036456104
 H         -2.8383517199        1.6906445863        1.6088302749
 C         -4.6892475985        0.6594574806        1.9444976196
 H         -4.1942290926       -0.0386316334        2.6244460668
 H         -5.6804567424        0.8764550708        2.3489529040
 C         -4.8560376835       -0.0378595397        0.5880693944
 H         -5.2624358858       -1.0369312975        0.7638731858
 H         -5.5543770372        0.5178199692       -0.0373967832
 H         -2.5569257053        3.2947080862       -0.1206295930
 H         -3.9542012522        4.0695467264       -0.8697781103
 H         -4.8076367731        1.7949004306       -1.5297876282
 H         -3.3029333099        2.3080712719       -2.3088354153
 O         -1.8321915632        0.6273864036       -1.5346483701
 C         -1.0053179714       -0.4586790715       -1.2870451604
 O          0.0826137963       -0.4127651167       -1.8904694656
 O         -3.1811054363       -2.2763655200        0.9705272006
 C         -0.5760985370       -2.6447760006       -0.1021703916
 C          0.5794195581       -2.1068940291        0.7027711097
 C          0.4088818983       -1.8667070067        2.0634917344
 C          1.4096260780       -1.2703758577        2.8077877580
 C          2.5952764979       -0.8826675473        2.2068797243
 C          2.7686759189       -1.1085978277        0.8482731045
 C          1.7765365113       -1.7375776287        0.1089411831
 H          1.9256794721       -1.8988527596       -0.9465300397
 N          3.9564262956       -0.6771413974        0.2173033573
 S          4.2439703642        0.9737174542        0.2423262423
 O          5.3006579489        1.1927831097       -0.7194547815
 O          4.5284375908        1.3737187203        1.5979644277
 C          2.7364384456        1.7465723312       -0.3141616849
 C          1.7370699610        2.0133071466        0.5992944605
 C          0.5549984428        2.5773093322        0.1488682042
 C          0.3931193996        2.8646891268       -1.1968013885
 C          1.4052094199        2.5870414128       -2.1009439394
 C          2.5867871469        2.0173186372       -1.6587601759
 H          3.3982016066        1.7866207605       -2.3305470117
 H          1.2705355697        2.8015213150       -3.1488693997
 H         -0.5305860479        3.2978607253       -1.5474324244
 H         -0.2375767313        2.7837037611        0.8521768741
 H          1.8984255300        1.7823688595        1.6398132983
 H          4.0255669264       -1.0010612477       -0.7378988293
 H          3.3758219484       -0.3887182962        2.7626908792
 H          1.2644195383       -1.0968176412        3.8634565913
 H         -0.5285068675       -2.1404370567        2.5275086208
 H         -1.1785553282       -3.2952255195        0.5455408846
 C         -0.1661273692       -3.4246024761       -1.3327442538
 C          0.4434431105       -4.7839361373       -1.1681933372
 C         -0.9433488585       -4.6457820789       -1.7186843784
 H         -1.1045713946       -4.8428390796       -2.7679699553
 H         -1.7741929393       -4.9296015899       -1.0895845099
 H          1.2361750813       -5.0797978184       -1.8382981672
 H          0.5550448838       -5.1607161408       -0.1627294034
 H          0.1986454834       -2.7992414813       -2.1382735094
