  62
        -98.94601835
 C          2.0068011725        0.2626356349        0.5117158928
 C          1.6629056735       -0.8961533227        1.2519462804
 C          1.7428511770       -2.1738641033        0.5361242370
 C          2.0721002154       -2.1849320799       -0.7678779460
 C          2.2015683895       -3.4044100759       -1.6398659461
 C          0.8659988750       -3.8942649081       -2.2160490232
 C         -0.0477068970       -4.6051420353       -1.2170823886
 H         -0.8321739008       -5.0975128707       -1.7953035025
 H          0.5152252849       -5.3831424091       -0.6994501780
 C         -0.7059403211       -3.6706920967       -0.1924896661
 H         -1.7669495864       -3.9185725237       -0.1033726149
 H         -0.6547345547       -2.6421887403       -0.5604995360
 C         -0.1037774242       -3.7469799775        1.2109278504
 H         -0.6312242141       -3.0353721705        1.8499886351
 H         -0.2644443396       -4.7469686338        1.6204652551
 C          1.3954239264       -3.4283706152        1.2815250065
 H          1.6625080806       -3.2745789001        2.3302677781
 H          1.9744446948       -4.2663170021        0.8930778259
 H          1.0941951757       -4.5884481403       -3.0285609039
 H          0.3364179553       -3.0390349176       -2.6445688338
 H          2.8534328791       -3.1241156177       -2.4702442427
 H          2.6772903064       -4.2107143536       -1.0801884967
 O          2.3528364087       -1.0503852205       -1.4575124003
 C          2.2968171754        0.1984708043       -0.8532490501
 O          2.5407648128        1.1396381972       -1.6317375848
 H         -0.5382539658        1.0717025699        0.4006377369
 C         -0.2217973956        2.0227403991        0.0035659925
 C          1.0327500386        2.5090300026        0.3496781399
 C          1.4304594733        3.7387395834       -0.1538497731
 C          0.6006770372        4.4339291839       -1.0179140059
 C         -0.6152708911        3.9104286474       -1.4162516799
 C         -1.0265171629        2.6827924641       -0.9062826476
 N         -2.2468803732        2.1084533000       -1.2861451546
 S         -2.4849364054        0.4507570611       -1.2725976505
 O         -1.2708461773       -0.2947259245       -1.5065894164
 O         -3.5527778067        0.2440377220       -2.2291302090
 C         -3.1254454285        0.1523551743        0.3625349227
 C         -4.3747164625        0.6631729035        0.6589008729
 C         -4.8982869802        0.4664856862        1.9258966144
 C         -4.1669483497       -0.2330297522        2.8745847918
 C         -2.9167625228       -0.7427933745        2.5618576783
 C         -2.3899424051       -0.5505202509        1.2941306635
 H         -1.4176050029       -0.9342829820        1.0250494687
 H         -2.3394872124       -1.2827516460        3.2959426452
 H         -4.5718160782       -0.3839943987        3.8627942313
 H         -5.8715837350        0.8596306232        2.1714109963
 H         -4.9121841027        1.1922857126       -0.1101353979
 H         -2.7120895635        2.5564316411       -2.0610936925
 H         -1.2365640885        4.4363239614       -2.1251617122
 H          0.9211050948        5.3864666330       -1.4125348105
 H          2.4000076427        4.1365555394        0.0972705546
 C          1.8867071215        1.6100738611        1.2076153912
 H          1.3284403258        1.3876794115        2.1329625983
 C          3.2042718068        2.2336997490        1.6373273538
 C          4.3996708792        1.3787472600        1.9316696116
 C          4.4035050583        2.2877470557        0.7410861443
 H          5.0263576085        3.1698498389        0.7746423066
 H          4.3128737434        1.8543536981       -0.2421522400
 H          4.3065429689        0.3158503500        1.7606184298
 H          5.0188550972        1.6336159365        2.7786202580
 H          3.0515948396        3.0851091848        2.2936458556
 O          1.3016953248       -0.8648907467        2.4596558018
