  62
        -98.92924229
 C         -1.7111612819       -1.2578971609       -0.1404715948
 C         -3.0838303886       -1.4376270150        0.1607020762
 C         -3.9930907070       -0.3613790083       -0.2579333625
 C         -3.4865667869        0.7078608207       -0.8985855606
 C         -4.2650799526        1.9209913873       -1.3220751743
 C         -4.5353109861        2.8267545919       -0.1035900840
 C         -6.0115114717        2.9513426680        0.2739452403
 H         -6.0591340560        3.4263901654        1.2561426415
 H         -6.5052399975        3.6163654699       -0.4377797674
 C         -6.8029130825        1.6405980412        0.3155931912
 H         -7.7360135548        1.8492214005        0.8432902039
 H         -7.0789725357        1.3457146080       -0.6979390588
 C         -6.1054375813        0.4568656225        0.9982544984
 H         -5.3564205815        0.8085425816        1.7079833736
 H         -6.8539095980       -0.0928726005        1.5725968994
 C         -5.4569918952       -0.5502261371        0.0299789980
 H         -6.0149735653       -0.5635678129       -0.9105215498
 H         -5.5285702760       -1.5504861246        0.4673656828
 H         -3.9730604193        2.4340731305        0.7461373567
 H         -4.1483775773        3.8274531362       -0.3013333589
 H         -3.6648753019        2.4491191487       -2.0632279308
 H         -5.1998252117        1.6138578820       -1.7859344007
 O         -2.1645419780        0.8435470991       -1.1732782647
 C         -1.2421580587       -0.1313361270       -0.8134843284
 O         -0.0737276821        0.1370241882       -1.1419110858
 O         -3.5273049023       -2.4567799718        0.7563791891
 C         -0.7474716985       -2.3635608522        0.2730113637
 C          0.4127747496       -1.7753731121        1.0351545191
 C          0.1406513435       -1.3733390350        2.3448242091
 C          1.1141015089       -0.8065341234        3.1420587810
 C          2.3984021020       -0.6319522570        2.6568440579
 C          2.6862886949       -1.0250332075        1.3569085100
 C          1.6980095018       -1.5827804309        0.5528776692
 H          1.9684220374       -1.8271959747       -0.4568068469
 N          3.9965813900       -0.9116424825        0.8566790228
 S          4.3391303650       -0.1289906028       -0.5820245116
 O          3.6027939864       -0.7288037823       -1.6623681556
 O          5.7821979350       -0.1873272293       -0.6832901253
 C          3.8464890687        1.5627930046       -0.3043410283
 C          2.5114894286        1.9047350729       -0.3787165620
 C          2.1463921720        3.2120230617       -0.0917585465
 C          3.1092371412        4.1439996699        0.2628754276
 C          4.4460648591        3.7812337536        0.3326460348
 C          4.8194974445        2.4775309695        0.0515363960
 H          5.8460451835        2.1501463326        0.0882223037
 H          5.1944030515        4.5076518862        0.6060555101
 H          2.8152024817        5.1581194514        0.4839286064
 H          1.1050991667        3.4878987914       -0.1491072944
 H          1.7776477580        1.1666832218       -0.6629881498
 H          4.6707967475       -0.6250322751        1.5527368283
 H          3.1693445561       -0.2011339273        3.2776770164
 H          0.8745999372       -0.5022958385        4.1497210607
 H         -0.8604683289       -1.5112019855        2.7306859153
 H         -1.3239159152       -2.9565962055        1.0025931529
 C         -0.5247428160       -3.3065902488       -0.9012373690
 C          0.3431692269       -3.0508964629       -2.0945286603
 C          0.6994883458       -4.1406156114       -1.1257318918
 H          0.5628639852       -5.1643482903       -1.4420967456
 H          1.5481210256       -3.9949023095       -0.4767095642
 H         -0.0450010146       -3.3383965438       -3.0621150473
 H          0.9355462681       -2.1504764813       -2.1328212834
 H         -1.4685478715       -3.7985089311       -1.1298570247
