  62
        -98.94415783
 C         -2.0702325658       -1.3495128781       -0.0649175239
 C         -2.4343350631       -0.3425896439       -0.9914506431
 C         -3.8141588195        0.1571618336       -0.8871466339
 C         -4.6401169530       -0.3572329387        0.0411333666
 C         -6.0472329351        0.1007261708        0.2898244265
 C         -6.0908886451        1.2077040424        1.3524923968
 C         -5.0930073901        2.3397096341        1.1073382227
 H         -5.2357592779        3.0764462223        1.9008919448
 H         -4.0773804510        1.9503084121        1.2114404384
 C         -5.2342960913        3.0264118243       -0.2583322534
 H         -6.2143978063        2.8073446797       -0.6836949071
 H         -5.1781124664        4.1074287071       -0.1136346394
 C         -4.1485362646        2.6563864412       -1.2706464059
 H         -3.1633254058        2.7875028800       -0.8151822033
 H         -4.2156293831        3.3537164835       -2.1101489413
 C         -4.2292918032        1.2369451620       -1.8466048969
 H         -5.2358220910        1.0503984495       -2.2262243602
 H         -3.5293841591        1.1791678036       -2.6853215474
 H         -7.1033819474        1.6140330818        1.3864394480
 H         -5.8703247210        0.7628346152        2.3255670574
 H         -6.4775920759        0.4605709914       -0.6426656926
 H         -6.6291640756       -0.7523228458        0.6427922164
 O         -4.2620998095       -1.3353483409        0.9021234128
 C         -2.9744019495       -1.8400840496        0.8829406353
 O         -2.7577575836       -2.7183390384        1.7411668913
 H          0.5875400162        0.1644721795       -1.1874103925
 C          0.8456295380        0.0644421364       -0.1446740560
 C          0.2789182634       -0.9563234422        0.6046908393
 C          0.5958313992       -1.0456017508        1.9560626600
 C          1.4554606837       -0.1335605937        2.5422484516
 C          2.0171893307        0.8846195689        1.7927636600
 C          1.7011835986        0.9848098259        0.4440611165
 N          2.2806406744        2.0109036752       -0.3256183900
 S          3.9489140132        2.1380642396       -0.2474304740
 O          4.3205848416        2.8842581980        0.9291130559
 O          4.3552932075        2.7109164960       -1.5114266101
 C          4.5209802750        0.4539537896       -0.1002587480
 C          5.1502229240        0.0376680697        1.0548585844
 C          5.5321531288       -1.2895839741        1.1686916433
 C          5.2744592343       -2.1734058098        0.1327170210
 C          4.6440525561       -1.7388095142       -1.0231897399
 C          4.2607495610       -0.4133975927       -1.1429231912
 H          3.7719177604       -0.0428862543       -2.0296950540
 H          4.4456677736       -2.4287820797       -1.8275098901
 H          5.5658984857       -3.2077495513        0.2247464013
 H          6.0239916247       -1.6302795382        2.0654866005
 H          5.3278758642        0.7572482061        1.8372420534
 H          1.9578220173        2.0236618717       -1.2823319400
 H          2.6882428428        1.6063602121        2.2299926513
 H          1.6914226890       -0.2162465125        3.5921858921
 H          0.1497172584       -1.8332127067        2.5465868536
 C         -0.6726628836       -1.9498149043       -0.0174446960
 H         -0.7448506689       -2.8107725642        0.6597023395
 C         -0.1978120069       -2.4391174257       -1.3717447932
 C          1.0241846215       -3.3032682458       -1.4420690422
 C         -0.3271896370       -3.8915697186       -1.7132070718
 H         -0.5802686077       -4.1612219603       -2.7277548080
 H         -0.7599940282       -4.5441098847       -0.9689302177
 H          1.6997321243       -3.1697157588       -2.2727205794
 H          1.5114584917       -3.5539525946       -0.5121173549
 H         -0.3603606550       -1.7289708606       -2.1715321575
 O         -1.6660305648        0.1258171288       -1.8733846762
