  62
        -98.93439498
 C          2.4430886709       -1.3089640695       -0.3280112800
 C          2.5373465979       -0.2210640573        0.5691623819
 C          3.6736679699        0.7014521444        0.3705008703
 C          4.5519784757        0.4565628514       -0.6180021038
 C          5.7759839075        1.2440531058       -1.0118225465
 C          6.6812956221        1.7249506635        0.1328149745
 C          6.6363158240        3.2386434927        0.3480277542
 H          7.5623095270        3.5497284640        0.8367816585
 H          6.6033356154        3.7274230447       -0.6278743608
 C          5.4728130556        3.7382486315        1.2028021667
 H          5.4752636121        4.8299070286        1.1582857158
 H          5.6425372996        3.4558253628        2.2441427733
 C          4.0895825659        3.2337785870        0.7862305621
 H          3.9929776731        3.2329248891       -0.2987505624
 H          3.3485320813        3.9377337455        1.1708338196
 C          3.7465623520        1.8450315396        1.3455269893
 H          4.4459199878        1.5818626957        2.1445977067
 H          2.7563044665        1.8715025325        1.8110814356
 H          6.4235197121        1.2034445491        1.0533241659
 H          7.7076250688        1.4508005692       -0.1166634848
 H          6.3366464162        0.5821224397       -1.6756512119
 H          5.4598177251        2.0967069350       -1.6177454696
 O          4.4158339145       -0.6048857679       -1.4644905771
 C          3.3684356884       -1.4976145973       -1.3550226740
 O          3.3712658852       -2.4043424746       -2.2116818883
 H         -0.7131252640       -1.4713241081        1.4569999605
 C         -0.9061342917       -1.2374051692        0.4220850392
 C          0.0104554052       -1.6012303245       -0.5505503389
 C         -0.2593277818       -1.2729839126       -1.8768256503
 C         -1.4154167139       -0.5967515486       -2.2156633688
 C         -2.3232003598       -0.2236230498       -1.2390322815
 C         -2.0625358997       -0.5434508016        0.0858046123
 N         -2.9648952886       -0.1459062847        1.0848970318
 S         -4.6011545025       -0.4311615152        0.8708144867
 O         -5.1581301565       -0.4617645370        2.2056902441
 O         -4.8334819534       -1.5989658319        0.0525765105
 C         -5.1881198551        1.0264731265        0.0330962885
 C         -5.9256441192        0.9019013838       -1.1278780561
 C         -6.3865232910        2.0486455064       -1.7558691188
 C         -6.1039859920        3.2929589505       -1.2137807794
 C         -5.3636992833        3.4009232022       -0.0457801738
 C         -4.9012034913        2.2584882430        0.5874719576
 H         -4.3241995715        2.3004572168        1.4962811693
 H         -5.1451431268        4.3704256557        0.3722352999
 H         -6.4625072014        4.1841587972       -1.7042655448
 H         -6.9622264298        1.9668428891       -2.6638227237
 H         -6.1153796727       -0.0861170127       -1.5161926541
 H         -2.6663339679       -0.3734466415        2.0217921529
 H         -3.2249707693        0.3082257337       -1.4952581593
 H         -1.6121154662       -0.3533094029       -3.2487868709
 H          0.4569077872       -1.5541753425       -2.6370690915
 C          1.3035214786       -2.3101828999       -0.2286932573
 H          1.4869825326       -3.0512912974       -1.0185603117
 C          1.3036777724       -3.0182510340        1.1096909805
 C          0.5186116346       -4.2841098504        1.2725010659
 C          2.0163028267       -4.3288809676        1.2423219881
 H          2.5447521236       -4.5370577230        2.1605921729
 H          2.4994004291       -4.7261721890        0.3615204218
 H         -0.0185981989       -4.6509571297        0.4107326240
 H          0.0173394647       -4.4658323574        2.2112498605
 H          1.3573117873       -2.3401264331        1.9525796884
 O          1.7172949901       -0.0172778320        1.5029920921
