  62
        -98.94415149
 C          2.1978275397        1.3409099736       -0.1169030231
 C          2.5521610274        0.2683136204       -0.9708728016
 C          3.9108910025       -0.2619026672       -0.7950947569
 C          4.7361896694        0.2888317554        0.1129904922
 C          6.1557627199       -0.1264765566        0.3887093209
 C          6.2818735224       -1.3092913806        1.3585827197
 C          5.8743333275       -2.6670833703        0.7850693572
 H          6.3994763903       -2.8356732683       -0.1556274972
 H          6.2161390601       -3.4280343741        1.4894807695
 C          4.3635694282       -2.8369908284        0.5710504187
 H          3.8253533743       -2.0775735746        1.1432771310
 H          4.0474881464       -3.8089356143        0.9567196384
 C          3.9167861563       -2.7635190045       -0.8892003552
 H          4.3398113443       -3.6037358144       -1.4444940640
 H          2.8276287919       -2.8545821676       -0.9183479903
 C          4.3034724452       -1.4616608926       -1.6031105083
 H          5.3731943846       -1.4494643450       -1.8107995017
 H          3.7613155709       -1.4169929379       -2.5508506663
 H          5.6852586705       -1.0964366700        2.2486262429
 H          7.3284238731       -1.3683009255        1.6662556698
 H          6.6562341869       -0.3684081152       -0.5492653483
 H          6.6514891720        0.7383850654        0.8347894299
 O          4.3646567875        1.3346239597        0.8981800838
 C          3.0865109052        1.8619058446        0.8262076262
 O          2.8670228165        2.7852826258        1.6356861805
 H         -0.8816723961        0.3210728562       -1.6066577024
 C         -0.9529460805        0.1595723636       -0.5431329435
 C         -0.1757331405        0.9108391438        0.3238583586
 C         -0.2746080966        0.6660185845        1.6911457608
 C         -1.1205639732       -0.3139645377        2.1747962311
 C         -1.8831831587       -1.0745316901        1.3052521118
 C         -1.7916236879       -0.8374469108       -0.0595932657
 N         -2.5585962328       -1.6072387311       -0.9479367763
 S         -4.1595241001       -1.9024421615       -0.5741916578
 O         -4.2485186026       -2.9740551462        0.3866146246
 O         -4.8089121490       -2.1387619807       -1.8443699658
 C         -4.7517737233       -0.3862102199        0.1571089173
 C         -4.7175611795        0.7615153788       -0.6101073979
 C         -5.1439886782        1.9547338191       -0.0507198324
 C         -5.5939413951        1.9804199741        1.2606986844
 C         -5.6262302741        0.8190753682        2.0164460084
 C         -5.1997558271       -0.3773467024        1.4620788596
 H         -5.2070040936       -1.3027369786        2.0146470489
 H         -5.9786311235        0.8416146204        3.0350925601
 H         -5.9223409150        2.9116412835        1.6946984059
 H         -5.1216095544        2.8591583392       -0.6372123933
 H         -4.3683129575        0.7065805486       -1.6285560763
 H         -2.4316808918       -1.3675056455       -1.9195608073
 H         -2.5329108192       -1.8570413794        1.6622105791
 H         -1.1848085040       -0.4928151403        3.2373636962
 H          0.3338068194        1.2496531969        2.3684763152
 C          0.8052925867        1.9507329060       -0.1597988640
 H          0.8153510393        2.7724670994        0.5684682009
 C          0.4841382899        2.5165351592       -1.5269860177
 C         -0.6605932502        3.4719900526       -1.6751374462
 C          0.7491112386        3.9660286967       -1.7958612717
 H          1.1165997928        4.2496780616       -2.7707702735
 H          1.1566245635        4.5570088300       -0.9885703291
 H         -1.2112713891        3.7288776563       -0.7830701676
 H         -1.2637823914        3.4215320546       -2.5687686102
 H          0.6783068115        1.8226556218       -2.3353420520
 O          1.7886128961       -0.2233787495       -1.8422573360
