  62
        -98.94091482
 C          2.5772699110        1.3899674590        0.2372277128
 C          2.8108954142        0.5430422363       -0.8739858261
 C          3.6943476019       -0.6059796482       -0.6266374407
 C          4.2174130424       -0.8073382139        0.5954381551
 C          5.1432123979       -1.9243339242        0.9937845075
 C          4.4233528896       -3.2291451238        1.3608746949
 C          3.8253190884       -3.9962280361        0.1808828476
 H          4.5890186638       -4.1372168822       -0.5846654399
 H          3.5459638484       -4.9851002456        0.5496672194
 C          2.5867914583       -3.3364991820       -0.4421534082
 H          2.1717709257       -2.6026165464        0.2539374264
 H          1.8109105939       -4.0895789130       -0.6012662761
 C          2.8411748230       -2.6575801362       -1.7881447071
 H          1.9050593475       -2.2008708472       -2.1203443397
 H          3.1276574708       -3.4088138311       -2.5276247200
 C          3.9205766474       -1.5673202236       -1.7548444400
 H          4.9082955180       -2.0205552016       -1.6758353571
 H          3.8659671559       -1.0035810927       -2.6893881599
 H          3.6356666526       -3.0030257946        2.0835492911
 H          5.1521843385       -3.8759839443        1.8545159371
 H          5.6906701028       -1.5749870523        1.8717647104
 H          5.8564617128       -2.1140269084        0.1912790318
 O          3.9660126810        0.0255171839        1.6396462656
 C          3.1350672133        1.1224050431        1.4914793650
 O          2.9798354164        1.7874649542        2.5351625298
 O          2.3213647753        0.7151677298       -2.0209882012
 C          1.6929570545        2.6268685939        0.1740081677
 C          0.2513909569        2.2430115465        0.3876344691
 C         -0.4980346883        2.7991373262        1.4168100992
 C         -1.8094939531        2.4065624638        1.6232569718
 C         -2.3984644674        1.4558566093        0.8090407506
 C         -1.6553781386        0.8898849881       -0.2189151774
 C         -0.3430139716        1.2863637458       -0.4249360181
 H          0.2329908361        0.8431324907       -1.2244705958
 N         -2.2453618221       -0.0815744219       -1.0515277683
 S         -2.8690588561       -1.4442661823       -0.2889174666
 O         -2.1847586618       -1.7120746237        0.9558302323
 O         -2.8323587924       -2.4937261412       -1.2838350982
 C         -4.5647490298       -1.0008231987        0.0246454096
 C         -5.0649533294       -1.0462491827        1.3110498324
 C         -6.3885407909       -0.6949649466        1.5277791195
 C         -7.1835546340       -0.3074728275        0.4600199309
 C         -6.6663999793       -0.2698308137       -0.8265532857
 C         -5.3446395259       -0.6204250855       -1.0501372365
 H         -4.9038754960       -0.6072886916       -2.0329642105
 H         -7.2876970784        0.0322343187       -1.6541859078
 H         -8.2123203264       -0.0328418362        0.6317212670
 H         -6.7922304004       -0.7236821605        2.5271316962
 H         -4.4067248412       -1.3470265165        2.1106350502
 H         -1.6459694533       -0.3572013876       -1.8172262353
 H         -3.4181949679        1.1443213923        0.9667144160
 H         -2.3791148702        2.8446965020        2.4284794583
 H         -0.0392813568        3.5283851898        2.0684589157
 H          2.0026813268        3.2412739499        1.0336175545
 C          1.9236830184        3.4553593923       -1.0837269846
 C          0.8832465948        3.6850386768       -2.1350877647
 C          1.2715665598        4.8002468287       -1.2148925309
 H          1.8515657491        5.6222382736       -1.6059264437
 H          0.5647630766        5.0815047118       -0.4486367197
 H          1.2133515728        3.7175361767       -3.1623090095
 H         -0.0878592331        3.2341374330       -2.0053334082
 H          2.9472496389        3.3772198994       -1.4354114801
