  62
        -98.94462360
 C         -1.7463032571       -1.0740850269       -0.0247274235
 C         -2.9521615012       -1.0836408183        0.7273074121
 C         -4.1320329272       -0.5031320675        0.0797922955
 C         -4.0339898598       -0.0239753398       -1.1730871883
 C         -5.1515732006        0.5698555924       -1.9865344647
 C         -5.4109254663        2.0555967766       -1.7020822179
 C         -6.0761757437        2.3542243362       -0.3579167329
 H         -6.3962675313        3.3977742200       -0.3840694966
 H         -6.9723528159        1.7418751558       -0.2532039766
 C         -5.1641715968        2.1487254783        0.8598320962
 H         -5.2598125817        3.0025139307        1.5345130524
 H         -4.1217463067        2.1161134147        0.5338820998
 C         -5.4673241454        0.8914468529        1.6751581463
 H         -6.4607313943        0.9751779900        2.1213655918
 H         -4.7377795849        0.8262614742        2.4864687253
 C         -5.4011040968       -0.4140283334        0.8718834073
 H         -5.4138978589       -1.2503393364        1.5750435601
 H         -6.2667012606       -0.4957355617        0.2147442648
 H         -6.0610806427        2.4304970877       -2.4959829594
 H         -4.4630776356        2.5951455651       -1.7669162628
 H         -6.0671816731        0.0015953157       -1.8200603283
 H         -4.8629641097        0.4654742373       -3.0347198300
 O         -2.8689371702       -0.0475919353       -1.8690004744
 C         -1.6973391071       -0.5454460476       -1.3145010279
 O         -0.7156831600       -0.4506896341       -2.0800285808
 O         -3.0374058463       -1.5683809270        1.8866833957
 C         -0.5277919919       -1.6799787815        0.6506784457
 C          0.3872779632       -0.6302425713        1.2333429155
 C          0.7292622070       -0.6434839650        2.5802835040
 C          1.6049739451        0.2963760129        3.0970471325
 C          2.1545339693        1.2707236686        2.2827612911
 C          1.8101243701        1.2965573637        0.9381838793
 C          0.9413245397        0.3483556760        0.4203753174
 H          0.6877066577        0.3710309884       -0.6291813402
 N          2.3786761211        2.2780826226        0.0915583175
 S          4.0199486069        2.0676115017       -0.1849207011
 O          4.7358589226        2.3661205061        1.0292201464
 O          4.3385372233        2.8853674911       -1.3331252775
 C          4.1788596041        0.3366702172       -0.5821119204
 C          4.4449399427       -0.5679198055        0.4258798724
 C          4.4799970188       -1.9183352064        0.1189763962
 C          4.2457739229       -2.3373339869       -1.1815239148
 C          3.9749884890       -1.4164739306       -2.1816884043
 C          3.9347993160       -0.0651703002       -1.8798877748
 H          3.7295435052        0.6822027552       -2.6299460495
 H          3.7877580238       -1.7455450216       -3.1913729447
 H          4.2768230669       -3.3889576007       -1.4208626439
 H          4.6844583139       -2.6380373231        0.8950584598
 H          4.6237906401       -0.2000830254        1.4227881963
 H          1.9063296067        2.3295829598       -0.8011511049
 H          2.8503297713        2.0018937966        2.6613143351
 H          1.8617382708        0.2711279898        4.1450549246
 H          0.2970109945       -1.3931628492        3.2265343670
 H         -0.9326503874       -2.2705701019        1.4834153554
 C          0.2656696500       -2.6058131519       -0.2522345590
 C          1.0801358667       -3.6996844188        0.3668661866
 C         -0.1655270302       -4.0329355902       -0.3968460833
 H         -0.0722696201       -4.5022220141       -1.3645032278
 H         -1.0369850198       -4.3494486034        0.1578735420
 H          2.0336047498       -3.9408016639       -0.0749547355
 H          1.0542274261       -3.7949744032        1.4415236278
 H          0.6641920120       -2.1134451401       -1.1298333303
