  62
        -98.94380328
 C         -1.9177651967       -1.2497588432        0.1411442887
 C         -2.4493131804       -0.4105035775        1.1527008019
 C         -3.8145135850        0.0774259357        0.9365338465
 C         -4.4761852275       -0.2697108080       -0.1825819768
 C         -5.8866959731        0.1183430575       -0.5344000820
 C         -6.0110281937        1.4991444202       -1.1925532669
 C         -5.7967066279        2.6873431027       -0.2542231225
 H         -6.1239385598        3.5813239331       -0.7887791583
 H         -6.4384127222        2.5786101894        0.6207359725
 C         -4.3415361327        2.8852466056        0.1930192277
 H         -3.6766506505        2.3276625198       -0.4711549119
 H         -4.0719790075        3.9399076384        0.1005662689
 C         -4.0602918070        2.4707345038        1.6374515567
 H         -2.9954280413        2.6197711453        1.8343804729
 H         -4.6212328884        3.1142799726        2.3189103846
 C         -4.4017067496        1.0086128259        1.9539384072
 H         -5.4823040318        0.8790491972        2.0097116754
 H         -3.9680651300        0.7579047214        2.9251555916
 H         -5.3013760123        1.5567511956       -2.0211954859
 H         -7.0174598522        1.5711715868       -1.6112717901
 H         -6.2478586176       -0.6325761606       -1.2403914472
 H         -6.5098853789        0.0828924868        0.3596722296
 O         -3.9233868352       -1.0553182934       -1.1422411910
 C         -2.6280238446       -1.5428638175       -1.0237339856
 O         -2.2527648174       -2.2145401540       -2.0020234343
 O         -1.8122974663       -0.0911005542        2.1929246908
 C         -0.5038398237       -1.7734159020        0.3328249649
 C          0.4306138179       -0.9688140250       -0.5360791734
 C          0.8444320807       -1.3838316902       -1.7954338395
 C          1.6903586419       -0.5892737689       -2.5502195037
 C          2.1518711468        0.6200228908       -2.0620752543
 C          1.7448303242        1.0410377708       -0.8027369911
 C          0.8879290944        0.2509102055       -0.0526779262
 H          0.5604492693        0.5841754311        0.9237839133
 N          2.2639067462        2.2447904516       -0.2771457054
 S          3.9356268796        2.2430065381       -0.1017627291
 O          4.2195482066        3.1748084060        0.9665712425
 O          4.5460572434        2.5338238839       -1.3741335041
 C          4.3109969422        0.5689831300        0.3886723482
 C          4.8299782750       -0.3156894193       -0.5346513213
 C          5.0060031875       -1.6399616362       -0.1671623123
 C          4.6573135835       -2.0554338612        1.1083592080
 C          4.1446209760       -1.1526732078        2.0274838888
 C          3.9641692696        0.1720457641        1.6649070843
 H          3.5684002376        0.9015435108        2.3537234455
 H          3.8762657835       -1.4774917440        3.0202247991
 H          4.7856463464       -3.0890260783        1.3892570789
 H          5.4055844036       -2.3443637096       -0.8785268203
 H          5.0854509500        0.0475930795       -1.5162491919
 H          1.8296859897        2.5103581503        0.5958841437
 H          2.8259364111        1.2420298612       -2.6288618847
 H          1.9987977063       -0.9192897695       -3.5304385454
 H          0.4852771031       -2.3198240819       -2.1898056393
 H         -0.2582396407       -1.5467095098        1.3794452877
 C         -0.3811148229       -3.2671657957        0.1224411606
 C          0.8786999726       -3.9504517610        0.5618470932
 C         -0.3979181602       -4.1762360362        1.3130264027
 H         -0.8893967788       -5.1332259256        1.2214394059
 H         -0.5056934235       -3.7235364776        2.2878929455
 H          1.2676643498       -4.7538107981       -0.0441451779
 H          1.6386444764       -3.3365492772        1.0219291612
 H         -0.8653413588       -3.6205136602       -0.7786649054
