  62
        -98.94023454
 C         -1.3555279824       -1.6636795923       -0.3829175335
 C         -0.6270646342       -2.0590448780        0.7652290130
 C          0.7400247821       -2.5793173556        0.5332942533
 C          1.2129573708       -2.6576074175       -0.7215590683
 C          2.5771484145       -3.0879283363       -1.1882608296
 C          3.5375674251       -1.8888765557       -1.2712198662
 C          4.3154825255       -1.5943704352        0.0096209484
 H          5.0361545555       -2.3962296101        0.1854735551
 H          4.8798676308       -0.6737529631       -0.1564739517
 C          3.4647692228       -1.4217275496        1.2694918972
 H          4.0699426817       -0.8985183147        2.0133892756
 H          2.6060032631       -0.7791380057        1.0641353730
 C          2.9863516146       -2.7535467296        1.8661653957
 H          3.5197877656       -3.5783614258        1.3942315954
 H          3.2420141816       -2.7859494108        2.9278901787
 C          1.4756112932       -2.9867424000        1.7813293878
 H          1.2660686494       -4.0459751362        1.9724245886
 H          0.9871367239       -2.4257909400        2.5853618365
 H          2.9588711474       -1.0062264060       -1.5535676241
 H          4.2609292012       -2.0763522209       -2.0673463988
 H          2.9781301583       -3.8705362777       -0.5516920362
 H          2.4393252584       -3.4931146605       -2.1930516213
 O          0.4695362654       -2.2836636908       -1.8011745888
 C         -0.8066209198       -1.7755735359       -1.6634308218
 O         -1.3508033541       -1.4643700104       -2.7417360792
 H         -1.1558123269        0.4290574367        1.3224309859
 C         -1.7319285481        1.0505552145        0.6548510108
 C         -2.6143677697        0.4747910713       -0.2476871906
 C         -3.3631917436        1.3067041918       -1.0717746717
 C         -3.2233872769        2.6808650596       -0.9988458702
 C         -2.3110473566        3.2488205830       -0.1278649379
 C         -1.5551262987        2.4260815372        0.6990561854
 N         -0.5932613847        2.9671315090        1.5721715177
 S          0.9597365560        2.3381392750        1.5301586045
 O          0.9844947834        1.0214151701        2.1056548237
 O          1.7708236367        3.3411412665        2.1861214165
 C          1.3641515293        2.2765232592       -0.2051768361
 C          1.9123011746        3.3959526483       -0.8006268880
 C          2.1550848159        3.3791279396       -2.1643775689
 C          1.8294911725        2.2560144705       -2.9104018925
 C          1.2769206936        1.1410471663       -2.2993242334
 C          1.0473049602        1.1475547446       -0.9323965084
 H          0.6262357070        0.2914119326       -0.4280562277
 H          1.0079724018        0.2681412250       -2.8751624623
 H          2.0065256063        2.2447271104       -3.9742271668
 H          2.5901153900        4.2414269123       -2.6433499275
 H          2.1499644481        4.2466884042       -0.1826541912
 H         -0.5548697034        3.9768809421        1.5640193188
 H         -2.1808710284        4.3195539035       -0.0879065337
 H         -3.8138142227        3.3157365798       -1.6413602202
 H         -4.0467372863        0.8687077480       -1.7834327959
 C         -2.7372023131       -1.0293194431       -0.3455400800
 H         -3.1980908826       -1.2589530126       -1.3167541330
 C         -3.6473191170       -1.5538874051        0.7466736167
 C         -5.1314960963       -1.4849393408        0.5541371286
 C         -4.4303364164       -2.8088513571        0.5119283181
 H         -4.5598274559       -3.4941436699        1.3358734307
 H         -4.3171571625       -3.2958524741       -0.4459810525
 H         -5.7491838784       -1.2570897737        1.4091177178
 H         -5.5008681051       -1.0801525402       -0.3757534742
 H         -3.2599553003       -1.3898574426        1.7434578849
 O         -1.0677350669       -1.9886284253        1.9428108560
