  62
        -98.93351653
 C         -2.1916138807       -0.9704602539        0.1063052996
 C         -3.4134713339       -0.9760478627        0.8256180712
 C         -4.4156374719        0.0426640837        0.4638785695
 C         -4.1022039999        0.9583318929       -0.4694912016
 C         -4.9427534438        2.0878174986       -1.0093742965
 C         -5.7436593789        2.9060197782        0.0151400770
 C         -7.2524875117        2.6636742860       -0.0568881093
 H         -7.5401525148        2.5751650206       -1.1066237639
 H         -7.7659319645        3.5383194662        0.3485283416
 C         -7.7519374438        1.4394437999        0.7083637184
 H         -8.8078600853        1.3044488950        0.4625234446
 H         -7.6905776062        1.6340768063        1.7812521292
 C         -7.0087285515        0.1355989228        0.4113827016
 H         -6.7957199568        0.0521128496       -0.6538805333
 H         -7.6716522229       -0.6928762455        0.6696779464
 C         -5.7138202853       -0.0320127480        1.2205124153
 H         -5.7012571814       -1.0180486319        1.6951238681
 H         -5.6877763822        0.6938667682        2.0382405524
 H         -5.5625269699        3.9623737164       -0.1903091807
 H         -5.3741785808        2.7061817128        1.0197383211
 H         -5.6166268465        1.6838049393       -1.7693393843
 H         -4.2379437799        2.7375056181       -1.5336548241
 O         -2.8969247034        0.9564779122       -1.1054312524
 C         -1.9182049689        0.0056793737       -0.8526434785
 O         -0.8920098678        0.1556724037       -1.5423018566
 O         -3.6640835303       -1.8082059020        1.7381506489
 C         -1.1650462179       -2.0272883388        0.4783038214
 C          0.1622577540       -1.3735979676        0.7615341197
 C          0.3742731997       -0.7600388161        1.9924887029
 C          1.5647220005       -0.1111575607        2.2607558650
 C          2.5629545819       -0.0503246333        1.3038907362
 C          2.3515824336       -0.6402615610        0.0654114758
 C          1.1655442831       -1.3155903527       -0.1918725965
 H          1.0062487101       -1.7614940296       -1.1612066146
 N          3.3514490343       -0.5765943282       -0.9185786889
 S          4.1824503640        0.8618293472       -1.1490802805
 O          3.3891945772        2.0189769692       -0.8057923251
 O          4.6724371542        0.7967016096       -2.5092202685
 C          5.5677344836        0.7210808406       -0.0358418454
 C          6.3326328476       -0.4279844660       -0.0861781024
 C          7.4208320466       -0.5457929804        0.7634835407
 C          7.7270776934        0.4825936101        1.6423082869
 C          6.9518192229        1.6312635967        1.6787650712
 C          5.8612038072        1.7547517675        0.8318173040
 H          5.2268269317        2.6271175799        0.8291100827
 H          7.1909900669        2.4302760546        2.3620693599
 H          8.5747051120        0.3884221790        2.3025877096
 H          8.0258490338       -1.4377779730        0.7380656151
 H          6.0630971260       -1.2023060853       -0.7846568971
 H          3.0660793388       -0.9683613795       -1.8046159008
 H          3.4871467191        0.4681523918        1.5000093315
 H          1.7177159229        0.3563456799        3.2216452037
 H         -0.4122226373       -0.7899537776        2.7339971452
 H         -1.5449732477       -2.4505051886        1.4219446942
 C         -1.0578682032       -3.1866445420       -0.5011561432
 C         -2.2870256761       -3.7503804909       -1.1473431703
 C         -1.2610579581       -3.0429091371       -1.9784838982
 H         -0.6404072124       -3.6343692633       -2.6364129107
 H         -1.4949967060       -2.0643085837       -2.3672774580
 H         -2.3780620519       -4.8219695760       -1.2402524494
 H         -3.2226721112       -3.2453641523       -0.9558888431
 H         -0.3057465731       -3.9039499651       -0.1862891732
