  62
        -98.93891503
 C         -1.8972195994       -0.5559682911       -0.5207935403
 C         -3.0011591338       -1.2789294875       -0.0116129038
 C         -4.3264467351       -0.6515777688       -0.1519462152
 C         -4.4236628774        0.5610353530       -0.7284922809
 C         -5.6302811090        1.4193135355       -1.0474089321
 C         -6.9916092945        1.1173966546       -0.4264153347
 C         -7.0688620289        1.3407654453        1.0834818783
 H         -7.0025899960        2.4140031851        1.2792545920
 H         -8.0468969892        0.9994674405        1.4296419111
 C         -5.9821799421        0.6548936574        1.9076808907
 H         -5.0052833024        1.0611650694        1.6371445275
 H         -6.1535235896        0.9033090969        2.9586256359
 C         -5.9367345810       -0.8673989453        1.7918329071
 H         -5.2324262953       -1.2332107306        2.5437406840
 H         -6.9190722490       -1.2831235084        2.0240590341
 C         -5.4823119252       -1.4153016611        0.4278239110
 H         -5.1286108753       -2.4395984805        0.5768741943
 H         -6.3085696268       -1.4552354984       -0.2778306977
 H         -7.3059072063        0.1092083007       -0.6796614019
 H         -7.7055144305        1.7986648193       -0.8974421734
 H         -5.3405391637        2.4442877310       -0.7947180890
 H         -5.7332812872        1.3900140767       -2.1379081143
 O         -3.3260136758        1.2261352556       -1.1949482274
 C         -2.0464665984        0.7011278561       -1.1028800826
 O         -1.1591346244        1.4402293994       -1.5689605640
 H          1.6548292427        0.4631922097       -1.0162967074
 C          1.3929628660        0.4608257226        0.0276816349
 C          0.3352167240       -0.3038768506        0.4919577410
 C          0.0089852198       -0.2439905640        1.8456711235
 C          0.7202231021        0.5655305225        2.7086478435
 C          1.7779453501        1.3270263301        2.2415442641
 C          2.1099126423        1.2783125754        0.8931906308
 N          3.1587356933        2.0670490994        0.3960903980
 S          4.2769227933        1.4695045868       -0.6894218627
 O          5.3204203409        2.4706870865       -0.7150682711
 O          3.6525542105        1.1634334751       -1.9502654136
 C          4.8948316718       -0.0186435096        0.0756472527
 C          4.2712860448       -1.2238825621       -0.1766950650
 C          4.7288582994       -2.3610924297        0.4705235393
 C          5.7943216437       -2.2746751930        1.3531405834
 C          6.4110876201       -1.0562451659        1.5945141375
 C          5.9559488652        0.0848055347        0.9543728262
 H          6.4123362148        1.0498565683        1.1040069860
 H          7.2421282807       -0.9926289091        2.2783496844
 H          6.1471597564       -3.1629519758        1.8529516498
 H          4.2508670470       -3.3090033334        0.2813499630
 H          3.4488977499       -1.2552826338       -0.8717448792
 H          3.6111445470        2.6449321125        1.0890651735
 H          2.3323320983        1.9659756139        2.9121267475
 H          0.4536825578        0.6040121630        3.7540328003
 H         -0.8214754686       -0.8353903416        2.2061607812
 C         -0.5108979995       -1.1681949429       -0.4086056447
 H         -0.6641276395       -2.1356418895        0.0906944567
 C          0.0850933835       -1.4185083478       -1.7766671430
 C          1.1399938659       -2.4690983511       -1.9473919121
 C         -0.2405205506       -2.6987090853       -2.4837993679
 H         -0.3918937508       -2.6725714422       -3.5525240743
 H         -0.8790974782       -3.4018451434       -1.9692729776
 H          1.9387103002       -2.2867842064       -2.6513003336
 H          1.4359835747       -3.0238329183       -1.0696570291
 H          0.1548499900       -0.5228865288       -2.3836173359
 O         -2.8877649384       -2.4097587042        0.5330660801
