  62
        -98.93842859
 C          2.3402202004       -0.0053171041        0.0986819733
 C          3.3856706639       -0.2135509309        1.0292229028
 C          4.7092149063       -0.4953490065        0.4584456685
 C          4.8489394002       -0.5515420113       -0.8790254939
 C          6.1476551527       -0.7835643455       -1.5946623055
 C          6.8553997113        0.5415998385       -1.9101231129
 C          6.9599003518        1.4870824587       -0.7135042938
 H          7.5027740659        2.3742926812       -1.0465373759
 H          5.9570349548        1.8124492715       -0.4276505955
 C          7.6647015878        0.8866699703        0.5108469561
 H          8.2437152853        0.0116032002        0.2135511445
 H          8.3685398469        1.6222618302        0.9058617494
 C          6.7270654767        0.5070438893        1.6583956511
 H          6.0786635450        1.3537246335        1.8977626228
 H          7.3365789104        0.3021322945        2.5426367886
 C          5.8434052953       -0.7234146076        1.4179263893
 H          5.3784097636       -0.9898660581        2.3718047337
 H          6.4618463639       -1.5622617451        1.0918130891
 H          6.2997375843        1.0507919920       -2.7008182731
 H          7.8548577640        0.3171333863       -2.2871340413
 H          6.7881130768       -1.4116055150       -0.9783064773
 H          5.9356387836       -1.3035788446       -2.5303443411
 O          3.8184758454       -0.3587312567       -1.7416105517
 C          2.5407457516       -0.0761752141       -1.2802247655
 O          1.6934632008        0.0822231058       -2.1786496879
 O          3.2174633601       -0.1727781200        2.2788787740
 C          0.9497273669        0.3000403098        0.6183665081
 C         -0.0548131837       -0.7437825245        0.1915472347
 C          0.3364946093       -2.0720436864        0.0520846427
 C         -0.5741199240       -3.0445380923       -0.3135804118
 C         -1.9034739543       -2.7190237221       -0.5135776226
 C         -2.3118376569       -1.4011277944       -0.3548200732
 C         -1.3877560090       -0.4209580579       -0.0207035773
 H         -1.7272265511        0.5936580344        0.0964957003
 N         -3.6650849642       -1.0382956800       -0.5405288844
 S         -4.5099584557       -0.4253389755        0.7895829820
 O         -3.7154015213        0.5711902295        1.4558385627
 O         -4.9760640782       -1.5266238259        1.6093267949
 C         -5.8959379397        0.3404839059       -0.0271855159
 C         -7.1554386848       -0.2166055866        0.0756270328
 C         -8.2136030182        0.3936223323       -0.5799650515
 C         -7.9936643667        1.5420295687       -1.3246815714
 C         -6.7220468216        2.0886855917       -1.4193791483
 C         -5.6606530203        1.4841078150       -0.7656513118
 H         -4.6578365593        1.8765669902       -0.8079944280
 H         -6.5549560230        2.9822072613       -1.9992328562
 H         -8.8179993393        2.0159136733       -1.8339009935
 H         -9.2033323524       -0.0277586993       -0.5072401774
 H         -7.2804033103       -1.1072302780        0.6700536327
 H         -4.2063360648       -1.8110322768       -0.9090761764
 H         -2.6191231641       -3.4799331824       -0.7883319266
 H         -0.2482236818       -4.0672241431       -0.4319745402
 H          1.3706314554       -2.3359105661        0.2279388681
 H          1.0292178481        0.2512374999        1.7160756633
 C          0.5477676914        1.7083321183        0.2263507119
 C         -0.3187866674        2.5381301290        1.1240454193
 C          1.1365895815        2.8626197913        0.9797253234
 H          1.4174109976        3.7492619369        0.4313216286
 H          1.7968105212        2.6300249068        1.8027589347
 H         -1.0389982497        3.2034709442        0.6718515981
 H         -0.6577406915        2.0946876649        2.0485125442
 H          0.4272725838        1.8178070784       -0.8458538148
