  62
        -98.93864472
 C          1.7989459301        0.0725162500       -0.0829729102
 C          2.7949486001        0.9596260796        0.3820547607
 C          4.1542928200        0.4102153194        0.5508642905
 C          4.3659160601       -0.8881381403        0.2646664394
 C          5.6596078800       -1.6565659104        0.3234234790
 C          6.5935098102       -1.3381459394       -0.8549565106
 C          6.7202340003        0.1452345208       -1.1913707093
 H          5.7312311604        0.5460515810       -1.4204945192
 H          7.3220626705        0.2288268416       -2.1002221392
 C          7.3796325301        1.0027850199       -0.1138227085
 H          7.4940350802        2.0087434003       -0.5257415077
 H          8.3791840501        0.6134783198        0.0920024013
 C          6.6189503399        1.1165010789        1.2091663514
 H          7.0638975099        1.9436987684        1.7699127722
 H          6.7517471698        0.2257681484        1.8173320407
 C          5.1350373300        1.4376571490        1.0632665015
 H          5.0196349701        2.3149297795        0.4165608022
 H          4.7480893698        1.7497633582        2.0408390116
 H          6.2059440404       -1.8484521287       -1.7402005210
 H          7.5798222302       -1.7495981696       -0.6336593507
 H          5.3958500100       -2.7156890304        0.2810440281
 H          6.1584226099       -1.4776339512        1.2712843892
 O          3.3700873601       -1.7090176200       -0.1789776514
 C          2.0738707702       -1.2649238998       -0.3637157312
 O          1.2808288702       -2.1363558394       -0.7686581221
 O          2.5638809600        2.1700214994        0.6504512116
 C          0.3862066202        0.5901005402       -0.2828620100
 C         -0.5820209100       -0.2020256605        0.5590019592
 C         -0.2850943002       -0.4074397416        1.9050326291
 C         -1.1255468503       -1.1484393023        2.7109541083
 C         -2.2921771203       -1.6883764418        2.1973141077
 C         -2.6061174300       -1.4775560107        0.8613772878
 C         -1.7581154599       -0.7310375301        0.0520719486
 H         -2.0227485897       -0.5983192292       -0.9833910314
 N         -3.7833868400       -2.0088566103        0.3133455972
 S         -4.6923020998       -1.0825969894       -0.7366228222
 O         -6.0288843498       -1.6292388995       -0.6371402728
 O         -4.1101940096       -1.0867691883       -2.0544960521
 C         -4.6520405799        0.5645931700       -0.0506538308
 C         -4.1940552497        1.6152793507       -0.8173079799
 C         -4.1522297598        2.8841399802       -0.2612152489
 C         -4.5641526400        3.0781369891        1.0476699712
 C         -5.0278263901        2.0125481585        1.8042249703
 C         -5.0746009401        0.7431842090        1.2522309292
 H         -5.4396144902       -0.1025674615        1.8116436285
 H         -5.3504154603        2.1674511377        2.8211706404
 H         -4.5252274701        4.0656172888        1.4798057420
 H         -3.7963093197        3.7143729307       -0.8503892881
 H         -3.8775931496        1.4198071215       -1.8287239500
 H         -4.3643784501       -2.5145710608        0.9653781867
 H         -2.9467069304       -2.2770254423        2.8218975971
 H         -0.8740000105       -1.3070844531        3.7487176882
 H          0.6266721997        0.0133679181        2.3064897196
 H          0.3998901001        1.6255508999        0.0892787208
 C          0.0431434404        0.6068115714       -1.7571713800
 C         -0.9031275895        1.6313462418       -2.3041229194
 C          0.5611354906        1.7268508221       -2.6074029190
 H          0.9001626007        1.5014002929       -3.6074583192
 H          1.1365311905        2.4963963217       -2.1137175583
 H         -1.5735390494        1.3362890025       -3.0978218697
 H         -1.3211926396        2.3425529013       -1.6082252288
 H          0.0312576805       -0.3859297583       -2.1943021709
