  62
        -98.93516771
 C         -2.2535894905       -1.0087996278       -0.0267063270
 C         -3.2372230548       -0.5994169851        0.9100135851
 C         -4.2694876632        0.3420273012        0.4416181700
 C         -4.2143233940        0.7855473745       -0.8266721633
 C         -5.1427959790        1.7356576304       -1.5395185223
 C         -5.5779990232        2.9866607884       -0.7608153927
 C         -7.0487486675        2.9609244318       -0.3412062444
 H         -7.3896390722        3.9889451405       -0.1997188149
 H         -7.6355931024        2.5329016407       -1.1566339753
 C         -7.3424934425        2.1959276405        0.9480809830
 H         -6.9622979109        2.7640807486        1.7998216634
 H         -8.4279996837        2.1358747624        1.0563755215
 C         -6.7644061162        0.7809057510        1.0159037716
 H         -6.8748141465        0.2764248475        0.0566587750
 H         -7.3521255812        0.2154257797        1.7421681667
 C         -5.2969247310        0.7357983338        1.4674927791
 H         -5.0101563358        1.6977552882        1.9020795708
 H         -5.1817258957       -0.0007107296        2.2687536048
 H         -4.9378554317        3.1225362018        0.1095061758
 H         -5.4283218133        3.8510459197       -1.4098199239
 H         -4.6069982536        2.0291129303       -2.4451541917
 H         -6.0236331826        1.1777578968       -1.8670477977
 O         -3.2458122683        0.3742681811       -1.6920782450
 C         -2.2559516117       -0.5244082115       -1.3335004524
 O         -1.4680140071       -0.7861382961       -2.2660477104
 O         -3.2597560175       -1.0178508566        2.0985553472
 C         -1.2209648004       -2.0089282923        0.4651009508
 C          0.1012201874       -1.3529809507        0.7863070407
 C          0.5999328662       -1.3597863737        2.0837532656
 C          1.8252156465       -0.7842410358        2.3713697434
 C          2.5757837157       -0.1885696648        1.3738009614
 C          2.0850581045       -0.1732042920        0.0746893662
 C          0.8592605162       -0.7567079540       -0.2116428653
 H          0.4803293818       -0.7367583854       -1.2229793656
 N          2.8321817101        0.4485986563       -0.9436069197
 S          4.4117890013       -0.0763456990       -1.1751896471
 O          4.7233043451        0.2390098221       -2.5521627679
 O          4.5728759846       -1.4564671400       -0.7787288793
 C          5.3740412353        0.9772071673       -0.1095390117
 C          6.1612539119        0.4217477608        0.8801383277
 C          6.9086447403        1.2610806570        1.6917675858
 C          6.8566568889        2.6331704915        1.4994922983
 C          6.0628991756        3.1750448145        0.4993056025
 C          5.3139529696        2.3415381053       -0.3159042065
 H          4.6884642429        2.7205641363       -1.1070053773
 H          6.0255396105        4.2424906779        0.3524525937
 H          7.4385417468        3.2844269898        2.1324263404
 H          7.5265651395        0.8418888381        2.4695163635
 H          6.1664955262       -0.6504859395        0.9945953539
 H          2.3421426153        0.4809554891       -1.8267118410
 H          3.5295649599        0.2637604422        1.5913085905
 H          2.1994104079       -0.7979254867        3.3835845658
 H          0.0144430336       -1.8131613816        2.8703089404
 H         -1.6329837655       -2.4011094781        1.4045817767
 C         -1.0193181110       -3.1708615134       -0.4891657411
 C         -0.4514061867       -4.4532745687        0.0372272264
 C         -1.8926425052       -4.3817187562       -0.3678953785
 H         -2.2030254271       -4.8847628576       -1.2713965969
 H         -2.6414827443       -4.3811320227        0.4107139737
 H          0.2338700896       -5.0064465503       -0.5866863468
 H         -0.2229676599       -4.5029479301        1.0910615308
 H         -0.7311534741       -2.8652637558       -1.4868229131
