  62
        -98.93597287
 C          2.5981490599        0.2249068801       -0.1153067642
 C          2.3210165396        1.3374756602       -0.9483918889
 C          1.5861332046        2.4510842869       -0.3365991775
 C          1.2511101343        2.3783134226        0.9637130398
 C          0.3955662965        3.3698461393        1.7001902082
 C         -1.0900218966        3.0878380265        1.3929193654
 C         -1.7966567648        4.1801736693        0.5876974602
 H         -2.7363333625        3.7563675845        0.2266413854
 H         -2.0400711308        5.0096611826        1.2556773730
 C         -1.0219261200        4.7546720788       -0.6020489622
 H         -1.7403063519        5.3117727047       -1.2072668124
 H         -0.2869362477        5.4780506750       -0.2451622554
 C         -0.3098197072        3.7353029488       -1.5007828231
 H         -0.4217825915        4.0573663819       -2.5384212948
 H         -0.7787761186        2.7520208172       -1.4227053426
 C          1.2009963525        3.5964434957       -1.2293871147
 H          1.7128785891        3.4031948595       -2.1766006404
 H          1.5931132624        4.5334153282       -0.8245638948
 H         -1.1542564806        2.1352304935        0.8598948921
 H         -1.6325757509        2.9498455989        2.3299926238
 H          0.5911243947        3.2415828418        2.7651275326
 H          0.6651059134        4.3831821104        1.4109841749
 O          1.5916402667        1.3266897144        1.7504537463
 C          2.1892646750        0.1922689185        1.2199587706
 O          2.3167702364       -0.7367721479        2.0393126624
 O          2.6530937799        1.3826924163       -2.1654624642
 C          3.1239287929       -1.0333753853       -0.7894778685
 C          2.1265045319       -2.1354874186       -0.5272655686
 C          2.4409110204       -3.3891383568       -0.0229811686
 C          1.4347977814       -4.3032308898        0.2449605567
 C          0.1050698909       -3.9804527180        0.0459940309
 C         -0.2176255094       -2.7291861563       -0.4677849326
 C          0.7926196554       -1.8390768177       -0.7809472950
 H          0.5297719261       -0.8708343619       -1.1833754203
 N         -1.5535075027       -2.3312709374       -0.6769917887
 S         -1.9143933409       -0.7376666177       -0.2230298947
 O         -1.5950158519        0.1469115433       -1.3166565862
 O         -1.3053449978       -0.4337876560        1.0506416540
 C         -3.6866990863       -0.8424823535       -0.0533337733
 C         -4.2419452221       -0.9743899473        1.2050686850
 C         -5.6186530559       -1.0881730727        1.3216561258
 C         -6.4111302980       -1.0720313507        0.1837654010
 C         -5.8390842911       -0.9375671220       -1.0727851448
 C         -4.4636910298       -0.8214523066       -1.1962482366
 H         -3.9737806369       -0.7051515806       -2.1488553126
 H         -6.4584386986       -0.9222336320       -1.9549279689
 H         -7.4818251461       -1.1617178861        0.2771676806
 H         -6.0656564773       -1.1887370747        2.2975013771
 H         -3.5847221204       -0.9742686220        2.0601196639
 H         -2.2137709037       -2.9750634219       -0.2605650353
 H         -0.6765657242       -4.6832008529        0.2924883549
 H          1.6903122637       -5.2737936639        0.6427496151
 H          3.4673964239       -3.6410085611        0.1879555200
 H          3.0792736880       -0.7919206680       -1.8658936242
 C          4.5672017840       -1.4081576170       -0.4998909017
 C          5.5526628184       -0.3771470227       -0.0387727524
 C          5.1338132790       -1.4790861025        0.8852061024
 H          5.8479236137       -2.2603071918        1.1021879561
 H          4.4754442817       -1.2426783468        1.7052089384
 H          6.5500843053       -0.3966452582       -0.4518293140
 H          5.1757605380        0.6173333919        0.1532725348
 H          4.9405367697       -2.1391347833       -1.2112146199
