  62
        -98.94340331
 C         -2.2942726282       -0.5996282576        0.0667417630
 C         -3.1902224495       -0.1827092263        1.0881431062
 C         -4.1185809929        0.9010828254        0.7462517254
 C         -4.0634739856        1.4464219656       -0.4821016484
 C         -4.9813604612        2.5204618645       -0.9876516772
 C         -6.2147091362        1.9188943790       -1.6759625759
 C         -6.9088652792        0.8296680354       -0.8581929062
 H         -7.7804126189        0.5011649114       -1.4285796917
 H         -6.2407304107       -0.0301453152       -0.7697536025
 C         -7.3522812018        1.2726972920        0.5431199691
 H         -7.3811880869        2.3616257402        0.5955714532
 H         -8.3682410945        0.9126890231        0.7185696632
 C         -6.4858072170        0.7335066079        1.6828668063
 H         -7.0079310904        0.9214400847        2.6247883221
 H         -6.3772229006       -0.3491170795        1.5797903668
 C         -5.0859381083        1.3485691287        1.8056595608
 H         -4.6603793291        1.0196042569        2.7580751561
 H         -5.1627190379        2.4375748520        1.8214573574
 H         -6.9204356228        2.7248282900       -1.8853595246
 H         -5.9022993036        1.4847017877       -2.6285669487
 H         -4.4343453018        3.1293413158       -1.7094115635
 H         -5.2880659792        3.1496558863       -0.1543571284
 O         -3.1821585036        1.0383281017       -1.4277160090
 C         -2.2853606250        0.0065743004       -1.1892761525
 O         -1.5601071434       -0.2486962148       -2.1729881544
 O         -3.2145135670       -0.7031796784        2.2349503680
 C         -1.3560548179       -1.7429202614        0.4168589680
 C          0.0354280318       -1.2524118774        0.7412571423
 C          0.5655304541       -1.4136979536        2.0160946601
 C          1.8495371857       -0.9858607183        2.3050308997
 C          2.6289446872       -0.3867648229        1.3319191695
 C          2.1077843102       -0.2182579597        0.0556933519
 C          0.8223153496       -0.6540452515       -0.2326537757
 H          0.4197447773       -0.5131164833       -1.2249219469
 N          2.8828587142        0.4096101735       -0.9359014488
 S          4.4260696604       -0.1857448054       -1.2248264468
 O          4.7297694072        0.1839649849       -2.5899627311
 O          4.5203502518       -1.5910071939       -0.9026576300
 C          5.4603886563        0.7609201315       -0.1269110090
 C          6.2544932249        0.1164624105        0.8013163119
 C          7.0571762200        0.8757609336        1.6386437837
 C          7.0523684600        2.2581154502        1.5324989012
 C          6.2508898986        2.8899493655        0.5930991660
 C          5.4469435299        2.1367432133       -0.2473627423
 H          4.8130250592        2.5871538048       -0.9930681002
 H          6.2500577634        3.9651286534        0.5130599211
 H          7.6770668475        2.8469955607        2.1854358938
 H          7.6811914068        0.3866671279        2.3692838556
 H          6.2221338850       -0.9603361926        0.8501447899
 H          2.3844974619        0.5402784613       -1.8048933283
 H          3.6290797243       -0.0498455878        1.5505724921
 H          2.2475130089       -1.1183846149        3.2994456399
 H         -0.0411519663       -1.8698434109        2.7848133739
 H         -1.7741376790       -2.1805868931        1.3333941599
 C         -1.3070519028       -2.8227107240       -0.6474362354
 C         -0.8447478647       -4.1961944139       -0.2677430360
 C         -2.2874606165       -3.9539063810       -0.5935174531
 H         -2.6809867521       -4.3387910240       -1.5223749079
 H         -3.0005171848       -3.9589530844        0.2180488328
 H         -0.2417457366       -4.7488388318       -0.9719047508
 H         -0.5799745724       -4.3664200064        0.7647850805
 H         -1.0312507827       -2.4524991087       -1.6264557603
