  62
        -98.93984155
 C          1.8321685105        1.0229941701        0.4715498110
 C          2.3850519205       -0.0777959698        1.1760962310
 C          3.8387696305       -0.2477864099        1.0844829608
 C          4.5677463805        0.6344825800        0.3778136206
 C          6.0622107804        0.6138835699        0.2043853804
 C          6.5474017602       -0.3169111703       -0.9153777096
 C          6.4509000502       -1.8115736802       -0.6067424094
 H          6.9305508403       -2.0157999502        0.3510415905
 H          7.0227790200       -2.3350844803       -1.3754889894
 C          5.0190488102       -2.3653070302       -0.5956354191
 H          4.9850998600       -3.3003191702       -1.1594657690
 H          4.3515009701       -1.6635372902       -1.1011811191
 C          4.4623827304       -2.6577354700        0.7978907210
 H          5.0423247704       -3.4573147600        1.2645424510
 H          3.4325249103       -3.0084855200        0.6891667112
 C          4.4527269806       -1.4472899799        1.7405500009
 H          5.4656130706       -1.2220272399        2.0742761907
 H          3.8432323907       -1.6971148598        2.6126472410
 H          7.5950358802       -0.0750835903       -1.1086713998
 H          5.9818829001       -0.0956228003       -1.8233923595
 H          6.5362592806        0.3316066699        1.1448818904
 H          6.3603385804        1.6348586398       -0.0433628297
 O          4.0069491104        1.6914186799       -0.2628757694
 C          2.6319281904        1.9044044800       -0.2579567892
 O          2.2829380004        2.8964539099       -0.9222551892
 O          1.6922015706       -0.8768335097        1.8626805012
 C          0.3247240605        1.1926951402        0.5513979512
 C         -0.3467770297        0.4944771001       -0.6034487286
 C         -0.0024548999        0.7915021899       -1.9196968587
 C         -0.6152841601        0.1325822499       -2.9688830085
 C         -1.5835529701       -0.8270716201       -2.7295740483
 C         -1.9278093399       -1.1380426599       -1.4192833482
 C         -1.3120041797       -0.4734036498       -0.3657048683
 H         -1.5666120096       -0.7458739397        0.6475106817
 N         -2.8890832299       -2.1196167298       -1.1554753979
 S         -3.8503010197       -2.0706035296        0.2024741322
 O         -3.1065459695       -2.4725235696        1.3695877622
 O         -4.9848080098       -2.9024355796       -0.1384515075
 C         -4.3850821196       -0.3765133296        0.3742277121
 C         -4.3605885694        0.2102028605        1.6231040921
 C         -4.8169703093        1.5116104706        1.7641773620
 C         -5.2824718394        2.2032583805        0.6567541420
 C         -5.2983804497        1.6012063703       -0.5919537979
 C         -4.8510838297        0.2979591803       -0.7372315279
 H         -4.8619258599       -0.1953950198       -1.6951871978
 H         -5.6572439398        2.1430080703       -1.4519721179
 H         -5.6304150494        3.2178066305        0.7675302919
 H         -4.8009828791        1.9808237507        2.7347670219
 H         -3.9776997193       -0.3587872294        2.4555492021
 H         -3.3639790501       -2.4990011099       -1.9601823178
 H         -2.0593206903       -1.3432651101       -3.5493525481
 H         -0.3392243302        0.3709710297       -3.9849600386
 H          0.7510501801        1.5414993899       -2.1061314789
 H          0.0348062906        0.6563822703        1.4693030813
 C         -0.1111032194        2.6426601002        0.7145537012
 C         -0.9171260895        3.3902794002       -0.3013817188
 C         -1.5539037293        2.9548801003        0.9815291113
 H         -1.7945197092        3.7001473704        1.7239712413
 H         -2.2508283094        2.1310241704        0.9380832615
 H         -0.6893866595        4.4356885501       -0.4421762389
 H         -1.1997134897        2.8808991901       -1.2084668887
 H          0.6222538807        3.2244116202        1.2633958810
