  62
        -98.94315877
 C          2.5838600989       -0.0847344639       -0.3610518782
 C          2.6746473813       -1.1008714112        0.6259962662
 C          2.0937130057       -2.4011884847        0.2851184158
 C          1.5199052365       -2.5736991418       -0.9187257047
 C          0.8383992096       -3.8233383389       -1.4055060635
 C         -0.6162647490       -3.9398859252       -0.9286085210
 C         -0.7878219173       -4.3310530867        0.5402786558
 H         -1.8300766589       -4.6290360912        0.6708839873
 H         -0.1685978348       -5.2019603228        0.7596011886
 C         -0.4717982462       -3.2045652573        1.5341786260
 H         -1.2484707535       -3.1725318025        2.3025718955
 H         -0.4976838010       -2.2433963157        1.0148442626
 C          0.8660861842       -3.3488349157        2.2603303930
 H          1.0078138894       -2.4661256073        2.8891750649
 H          0.8375731918       -4.2272256169        2.9100560036
 C          2.0846922762       -3.4692903637        1.3372324603
 H          2.9852715592       -3.3428200320        1.9436883255
 H          2.1101136064       -4.4553348869        0.8735421980
 H         -1.1045660868       -4.6971652079       -1.5469929336
 H         -1.1157160305       -2.9838110858       -1.1085449640
 H          0.8436445378       -3.7768857024       -2.4967174318
 H          1.4023525302       -4.7020175218       -1.0903680582
 O          1.5077005359       -1.5998088800       -1.8638542705
 C          1.9922174996       -0.3247966481       -1.6018258053
 O          1.8534399200        0.4591253111       -2.5632666975
 H          0.4730834483        1.5253113738       -0.7908060742
 C          0.6086003315        1.9442280844        0.1951477406
 C          1.8659320442        1.9617260722        0.7808309080
 C          2.0067282742        2.5342887628        2.0389966457
 C          0.9071769927        3.0483769668        2.7042462973
 C         -0.3555750141        2.9650707538        2.1463689720
 C         -0.5038121536        2.4020331864        0.8833472203
 N         -1.7649911686        2.2677139596        0.2831606772
 S         -2.0470633495        0.8534526785       -0.6077135469
 O         -1.3051219319       -0.2493474247       -0.0447893077
 O         -1.8324666228        1.1439886703       -2.0033588180
 C         -3.7927176718        0.6229549110       -0.3186585203
 C         -4.2065607960       -0.3068779188        0.6158333860
 C         -5.5637467409       -0.4597386290        0.8537652844
 C         -6.4780939450        0.3182889329        0.1598332675
 C         -6.0474487355        1.2474762263       -0.7759244536
 C         -4.6923411622        1.4037601392       -1.0202539080
 H         -4.3101532879        2.1032692618       -1.7454710984
 H         -6.7612109210        1.8482820519       -1.3159973682
 H         -7.5332965469        0.1976925999        0.3472043104
 H         -5.9008412763       -1.1841688594        1.5774200557
 H         -3.4579548961       -0.8926812236        1.1251643642
 H         -2.5298839323        2.4818072532        0.9084074314
 H         -1.2201864487        3.3256551592        2.6825910519
 H          1.0299366349        3.4893704861        3.6817828739
 H          2.9798531937        2.5495285583        2.5067220572
 C          3.0304276460        1.3004300950        0.0775253662
 H          3.8199675253        1.1367472749        0.8247579062
 C          3.5815309492        2.1898924377       -1.0158269260
 C          4.5259792059        3.2938249830       -0.6472343203
 C          5.0299769255        2.0908515351       -1.3851754123
 H          5.3003949416        2.1926264172       -2.4251171930
 H          5.6340032550        1.3762933128       -0.8452243691
 H          4.4526799359        4.2297674064       -1.1790832587
 H          4.7952998587        3.3974523102        0.3928070828
 H          2.8766800636        2.3742884892       -1.8160568368
 O          3.2205718588       -0.9216796826        1.7490221228
