  62
        -98.94323859
 C          2.3365944378        0.5691403554        0.1297790803
 C          3.3702724993        0.3298133352        1.0688299998
 C          4.2973782345       -0.7614265756        0.7435100823
 C          4.0985778687       -1.4797315538       -0.3768447400
 C          4.9903646305       -2.5884387919       -0.8538787253
 C          6.0830796705       -2.0565060748       -1.7917015629
 C          6.8312711028       -0.8422787305       -1.2413778756
 H          7.5981573665       -0.5744517587       -1.9714585923
 H          6.1413724897        0.0022217428       -1.1761522620
 C          7.4860163562       -1.0674974800        0.1287082303
 H          7.5744751191       -2.1363964866        0.3259732885
 H          8.4979468209       -0.6576337631        0.1047038430
 C          6.7613741649       -0.3951696631        1.2963511285
 H          6.5880908104        0.6581656297        1.0618169376
 H          7.4177288986       -0.4318023157        2.1698925013
 C          5.4232483738       -1.0249955419        1.7036107505
 H          5.5538376230       -2.0977123146        1.8598494006
 H          5.1190992069       -0.5741334449        2.6527544633
 H          5.6182436021       -1.7719644735       -2.7385290610
 H          6.7909327518       -2.8633945705       -1.9897493219
 H          4.3791473744       -3.3120050687       -1.3958196371
 H          5.4420276511       -3.0800265857        0.0055018560
 O          3.0765438978       -1.2423466269       -1.2369923093
 C          2.1763650883       -0.2096187558       -1.0164254163
 O          1.3060811118       -0.0975860335       -1.9003087787
 O          3.5098327772        0.9979149984        2.1281770340
 C          1.3532487577        1.6931145964        0.4115950483
 C         -0.0066902652        1.0915463174        0.6642757914
 C         -0.2390269250        0.4471816275        1.8770184514
 C         -1.4567306974       -0.1510219260        2.1368448889
 C         -2.4665907431       -0.1299227378        1.1899147860
 C         -2.2448351567        0.5072277511       -0.0228001538
 C         -1.0245981276        1.1232588561       -0.2748272353
 H         -0.8645663917        1.6068020195       -1.2254829973
 N         -3.2495576912        0.5057827960       -1.0016977583
 S         -4.8316994710        0.8396403781       -0.5732444778
 O         -5.4692653673        1.2780847010       -1.7956603333
 O         -4.8993213288        1.7515654731        0.5454029464
 C         -5.4985162448       -0.7447827898       -0.1081817100
 C         -5.3126030987       -1.8104464119       -0.9668235034
 C         -5.8383087123       -3.0457004078       -0.6232525552
 C         -6.5406492610       -3.1929249776        0.5637151083
 C         -6.7224353380       -2.1123014406        1.4129421396
 C         -6.1975177153       -0.8742736011        1.0759628678
 H         -6.3067403618       -0.0082356583        1.7092400931
 H         -7.2688304555       -2.2287588647        2.3351293631
 H         -6.9480025082       -4.1560117576        0.8282605362
 H         -5.6971174287       -3.8886637365       -1.2805815234
 H         -4.7601773220       -1.6568745407       -1.8789855760
 H         -2.9880436209        0.9579909987       -1.8649359346
 H         -3.4175629642       -0.5985450385        1.3838519842
 H         -1.6227638926       -0.6435620175        3.0829129698
 H          0.5545215048        0.4188817630        2.6109830304
 H          1.6996243844        2.1534546385        1.3472663468
 C          1.3743079179        2.7400027207       -0.6817073699
 C          0.7773077699        4.0898500793       -0.4217516767
 C          2.2639049588        3.9359162650       -0.5315662687
 H          2.7594351905        4.3226685564       -1.4094996815
 H          2.8538019748        4.0092960062        0.3702766554
 H          0.2507789148        4.5858748770       -1.2231265780
 H          0.3549931068        4.2671194096        0.5559022446
 H          1.2734031953        2.3218266198       -1.6763267850
