  62
        -98.94102027
 C         -2.6993005044       -0.9717559967       -0.4195805561
 C         -2.0743809573        0.0954079152       -1.1100849816
 C         -2.7189174624        1.4107422479       -0.9774782076
 C         -3.8492612076        1.5276598720       -0.2585174697
 C         -4.5750052691        2.8150943949        0.0009943090
 C         -4.0874179962        3.4740394527        1.2988849370
 C         -2.5654795458        3.5704918693        1.4117505643
 H         -2.3409615557        4.0801222391        2.3514835735
 H         -2.1440150358        2.5647507002        1.4883070423
 C         -1.8869025210        4.3150052722        0.2535166369
 H         -1.1409970703        4.9967023641        0.6675680518
 H         -2.6219139801        4.9203371944       -0.2787112504
 C         -1.1569890374        3.4114964692       -0.7424340130
 H         -0.4846938179        2.7386866592       -0.2013736842
 H         -0.5373597458        4.0459097844       -1.3822450239
 C         -2.0557524516        2.5730711655       -1.6609280761
 H         -2.7980077524        3.2173603847       -2.1363196958
 H         -1.4232060036        2.1410452636       -2.4416965979
 H         -4.5215248776        4.4734027785        1.3632292759
 H         -4.4550850523        2.8881102196        2.1444231420
 H         -4.4229908608        3.4883671035       -0.8401935304
 H         -5.6401629040        2.5965798077        0.0933692843
 O         -4.4402105102        0.4748048991        0.3616145416
 C         -3.8678196148       -0.7840779227        0.3246705798
 O         -4.4904571773       -1.6474377122        0.9746887324
 O         -1.0355215131       -0.0231710799       -1.8124999497
 C         -2.1021067100       -2.3720352799       -0.3847596033
 C         -0.8805588125       -2.3130441126        0.5004091052
 C         -1.0032738949       -2.5530256255        1.8655746100
 C          0.0815058655       -2.3976392000        2.7094360248
 C          1.3070019649       -1.9871228810        2.2137900371
 C          1.4356073646       -1.7382422419        0.8542601517
 C          0.3538591996       -1.9220027669        0.0045191113
 H          0.4605841053       -1.7039529151       -1.0464219019
 N          2.6721325270       -1.2906097115        0.3362050116
 S          3.2612560507        0.1263262543        1.0516253201
 O          3.8492674476       -0.2207976272        2.3217048406
 O          2.2282608766        1.1381984084        1.0926157017
 C          4.5399704329        0.5770402073       -0.1042454109
 C          4.2294861084        1.4216749029       -1.1528993047
 C          5.2172872977        1.7384666663       -2.0722293217
 C          6.4892906319        1.2044032875       -1.9299217148
 C          6.7846832832        0.3568371242       -0.8725709145
 C          5.8021846419        0.0368902843        0.0508758023
 H          5.9852558942       -0.6107930564        0.8921112364
 H          7.7752050526       -0.0548465868       -0.7655010221
 H          7.2551868469        1.4525024107       -2.6476585088
 H          4.9901934819        2.3978792738       -2.8945081448
 H          3.2284960537        1.8183085182       -1.2217435871
 H          2.6005418856       -1.1404556842       -0.6629753745
 H          2.1525270437       -1.8307908448        2.8639517722
 H         -0.0294444083       -2.5869807300        3.7667972354
 H         -1.9679869369       -2.8384341070        2.2619156915
 H         -2.8501721971       -3.0050209280        0.1098840976
 C         -1.8297601779       -2.9316229380       -1.7652729889
 C         -1.5565972822       -4.3974540021       -1.9129185837
 C         -2.8492402631       -3.8223435735       -2.4063904403
 H         -3.0056922371       -3.7410884391       -3.4715799065
 H         -3.7497355594       -4.0343894399       -1.8485077031
 H         -0.8243071822       -4.7153587710       -2.6390013422
 H         -1.5790500520       -4.9998245547       -1.0173038762
 H         -1.2969784613       -2.2488980767       -2.4137937765
