  62
        -98.94148206
 C          2.3676763170        1.2244463512        0.1684117911
 C          3.3127539127        0.5783235653        1.0053702709
 C          4.1441774809       -0.4550915868        0.3744928206
 C          3.9448431250       -0.7555353538       -0.9215535262
 C          4.6874092895       -1.8165117827       -1.6801702428
 C          3.9609843847       -3.1666970736       -1.6066720764
 C          3.5594110780       -3.5758856908       -0.1894535503
 H          2.8023665485       -2.8798375080        0.1805183586
 H          3.0838609064       -4.5569563502       -0.2567410776
 C          4.7244616607       -3.6379135730        0.8085079888
 H          4.6341963551       -4.5551248337        1.3941535787
 H          5.6708130823       -3.6896604896        0.2691568802
 C          4.7707417858       -2.4764573183        1.8031022378
 H          5.4862346004       -2.7309084726        2.5894229799
 H          3.7924729827       -2.3611076199        2.2768908520
 C          5.1903263439       -1.1187768131        1.2255873347
 H          5.3666910202       -0.4415421494        2.0663985749
 H          6.1241588630       -1.2285879779        0.6705395674
 H          3.0547749193       -3.1068217272       -2.2144428760
 H          4.6092558975       -3.9316297154       -2.0379358132
 H          4.7552816565       -1.5078259193       -2.7247112824
 H          5.6922171447       -1.9100460993       -1.2725153410
 O          2.9982997445       -0.1501204923       -1.6816364757
 C          2.1782530106        0.8459937769       -1.1619594320
 O          1.3502057265        1.2898141097       -1.9777967576
 H          0.0849502724        0.1424976000        1.3424839214
 C         -0.5225289432        0.8721848319        0.8195600118
 C          0.0526460885        2.0799781846        0.4424955185
 C         -0.7312290418        3.0008076427       -0.2388547783
 C         -2.0518985380        2.7112939235       -0.5347746087
 C         -2.6199487961        1.5092901449       -0.1559425402
 C         -1.8431892366        0.5772064342        0.5200352864
 N         -2.4118874563       -0.6440043837        0.9223502105
 S         -3.3139887497       -1.5194487536       -0.1908006418
 O         -3.2572251165       -2.8869417000        0.2802495907
 O         -2.8702673796       -1.2884622519       -1.5456657492
 C         -4.9694005904       -0.9004281384        0.0291751766
 C         -5.5096721974       -0.9171148911        1.3002358463
 C         -6.7982536944       -0.4424523660        1.4855675597
 C         -7.5220444518        0.0348434943        0.4029272191
 C         -6.9672053121        0.0405091643       -0.8676303369
 C         -5.6780411560       -0.4318377785       -1.0597083927
 H         -5.2024661384       -0.4406209466       -2.0277495868
 H         -7.5310396592        0.4112384901       -1.7084969686
 H         -8.5244561915        0.4046666638        0.5501020402
 H         -7.2329782674       -0.4452412474        2.4721126629
 H         -4.9154361231       -1.2985759270        2.1135873039
 H         -1.7684907225       -1.2498041002        1.4110156663
 H         -3.6460592559        1.2796482118       -0.3918042735
 H         -2.6478651825        3.4328658160       -1.0725038190
 H         -0.3014410351        3.9338810317       -0.5632855458
 C          1.5024451930        2.3059150625        0.7914096175
 H          1.6145482945        2.1487385115        1.8777307363
 C          1.9774664339        3.7241855780        0.5135552590
 C          3.4235850128        4.0169624783        0.2506367743
 C          2.4158776470        4.1756742112       -0.8461553101
 H          2.1570711385        5.1759902469       -1.1614295748
 H          2.4000851100        3.4495865629       -1.6436028782
 H          3.8546691698        4.9048760093        0.6881312238
 H          4.1042273512        3.1792468634        0.2025662796
 H          1.4453799909        4.4517896375        1.1187032229
 O          3.4518294412        0.8517033785        2.2278175258
