  62
        -98.93091059
 C         -2.2209699386        0.7448245362       -0.0752377148
 C         -3.5487222971        1.1474847031       -0.3663693782
 C         -4.6281155318        0.4310314740        0.3324642401
 C         -4.3140691698       -0.5670253023        1.1755160732
 C         -5.2350255101       -1.4023449694        2.0296892625
 C         -6.5435106762       -1.8909537422        1.3940929160
 C         -6.4572404269       -2.2038642679       -0.1068331806
 H         -5.4138128894       -2.2137318751       -0.4269765614
 H         -6.8616236779       -3.2019954031       -0.2849841450
 C         -7.2469996014       -1.2161982857       -0.9691111369
 H         -7.4519553189       -1.6807157384       -1.9366427992
 H         -8.2087709115       -1.0234785984       -0.4888995405
 C         -6.5504700905        0.1156182748       -1.2453184611
 H         -7.2579513807        0.7632756357       -1.7684493209
 H         -5.7032440088       -0.0415142306       -1.9182767141
 C         -6.0273369151        0.8595947277       -0.0056619835
 H         -6.6999986451        0.7390205842        0.8399417874
 H         -5.9654292765        1.9226582517       -0.2536642557
 H         -7.3268579447       -1.1525150380        1.5586569608
 H         -6.8402235118       -2.7896817985        1.9374539707
 H         -4.6335295790       -2.2613498139        2.3369788158
 H         -5.4671359407       -0.8327415625        2.9344452831
 O         -3.0246670051       -0.9507625321        1.3952423260
 C         -1.9498450050       -0.3236536386        0.7785816666
 O         -0.8453455727       -0.8191648455        1.0729326343
 O         -3.8220698703        2.0738055426       -1.1746230579
 C         -1.0940780981        1.4839379159       -0.7732899615
 C         -0.0856488228        0.5073895856       -1.3238379106
 C         -0.5027024311       -0.4070782606       -2.2878151360
 C          0.3772200094       -1.3360702773       -2.8062758945
 C          1.6921040905       -1.3694701845       -2.3769959236
 C          2.1232664357       -0.4530103338       -1.4252175947
 C          1.2366140536        0.4825356807       -0.9098519679
 H          1.5857202662        1.1635109187       -0.1534560360
 N          3.4735765701       -0.4406301275       -1.0268434565
 S          3.9308527527       -0.1326761020        0.5672885841
 O          3.4388778714       -1.1661642896        1.4516083729
 O          3.5981498469        1.2262603409        0.9088777806
 C          5.7001537932       -0.2819908225        0.3856767935
 C          6.3389419919       -1.4346893695        0.8005933584
 C          7.7105802606       -1.5406778256        0.6297065615
 C          8.4159775349       -0.4988132019        0.0471437394
 C          7.7612082214        0.6529378278       -0.3637157007
 C          6.3905716403        0.7652351495       -0.1945565568
 H          5.8407975687        1.6434047529       -0.4899834889
 H          8.3133941132        1.4620999939       -0.8137947179
 H          9.4830999700       -0.5836498546       -0.0845658050
 H          8.2224317602       -2.4333510886        0.9513912402
 H          5.7505573786       -2.2152394964        1.2558186077
 H          3.9692552218       -1.2585753769       -1.3575767294
 H          2.3788715563       -2.1013450917       -2.7752402121
 H          0.0373685887       -2.0458051632       -3.5457961814
 H         -1.5343095372       -0.3877563356       -2.6136239896
 H         -1.5826020637        1.9845006599       -1.6267642387
 C         -0.4625078973        2.5823850270        0.0683408178
 C         -1.2404173695        3.2996291231        1.1295376975
 C         -0.1173831581        2.3853995913        1.5128801450
 H          0.8036022083        2.8140155806        1.8816736509
 H         -0.3530884689        1.4306208910        1.9575655809
 H         -1.0984645268        4.3643149939        1.2378056120
 H         -2.2518916375        2.9706653927        1.3188508335
 H          0.2264214994        3.1895768347       -0.5116663145
