  62
        -98.94652201
 C         -0.7608569882       -1.7329318810        0.6754406254
 C         -1.5380988991       -1.7930540482       -0.5062603387
 C         -2.7317400073       -0.9394828785       -0.5248191269
 C         -3.0205152244       -0.1664297914        0.5377043743
 C         -4.2234974319        0.7270326117        0.6765924173
 C         -4.0602865684        2.1076311902        0.0270744732
 C         -4.0749197821        2.1209674068       -1.5014660742
 H         -4.9577438273        1.5932998393       -1.8635751094
 H         -4.1700856569        3.1631599548       -1.8118996629
 C         -2.8152321498        1.5260778096       -2.1465828098
 H         -2.0151614078        1.4702388406       -1.4041380368
 H         -2.4655180429        2.1856837958       -2.9436226622
 C         -3.0183640629        0.1414999230       -2.7620855189
 H         -2.0565748192       -0.2102412882       -3.1446427961
 H         -3.7111329422        0.2115666666       -3.6038903601
 C         -3.5494446823       -0.9110422050       -1.7804048773
 H         -4.5975122308       -0.7195456523       -1.5514813642
 H         -3.4668621970       -1.8928347210       -2.2530624543
 H         -4.8817192145        2.7333455891        0.3832762596
 H         -3.1242186977        2.5429781138        0.3786926775
 H         -5.0977458903        0.2258060179        0.2597148537
 H         -4.3827157195        0.8681024957        1.7476914888
 O         -2.2409989283       -0.1312431169        1.6520777470
 C         -1.0865498289       -0.8930554227        1.7397244476
 O         -0.4481146959       -0.7401397342        2.8011003507
 O         -1.2578890241       -2.5230020866       -1.4921037340
 C          0.5214056858       -2.5402604417        0.7730311853
 C          1.4593705207       -2.0836942630       -0.3186574374
 C          2.0569728453       -2.9350449200       -1.2375210755
 C          2.8799398182       -2.4251981382       -2.2273562230
 C          3.1412449535       -1.0698856850       -2.3063195177
 C          2.5589277371       -0.2104047070       -1.3811067062
 C          1.7204664031       -0.7214452144       -0.4056387736
 H          1.2617908395       -0.0502978895        0.3068978607
 N          2.7926594573        1.1733644683       -1.4217445100
 S          3.0574641455        1.9890227563        0.0182590753
 O          3.8117963183        3.1631774475       -0.3693345324
 O          3.6808319054        1.1324883576        0.9998076299
 C          1.4529947982        2.5214043931        0.5736694407
 C          1.0323590279        2.2022365821        1.8489055282
 C         -0.1791630278        2.6999804841        2.3012284434
 C         -0.9410582639        3.5110485421        1.4754804897
 C         -0.5126273675        3.8104593981        0.1899372793
 C          0.6966069477        3.3137729330       -0.2678212699
 H          1.0691683352        3.5345445449       -1.2542347587
 H         -1.1160072911        4.4314817860       -0.4528819916
 H         -1.8718973926        3.9154712234        1.8423594741
 H         -0.5206258385        2.4422279031        3.2909595821
 H          1.6485033045        1.5646694915        2.4636586282
 H          3.4377517451        1.4720070538       -2.1391516495
 H          3.7870706243       -0.6758547928       -3.0764846315
 H          3.3295554881       -3.0951802474       -2.9446062691
 H          1.8704193783       -3.9950412670       -1.1878594508
 H          0.9773730700       -2.2794554611        1.7396755000
 C          0.2292941673       -4.0251015604        0.7542603686
 C          1.1880147219       -4.9855105282        1.3895014870
 C         -0.1344347288       -4.7075605332        2.0371658772
 H         -0.8921824207       -5.4762924709        2.0157455126
 H         -0.1503001709       -4.1041076030        2.9333735527
 H          1.3380600176       -5.9490038913        0.9263023171
 H          2.0741237370       -4.5749636774        1.8501760924
 H         -0.2919292736       -4.3372783404       -0.1430004172
