  62
        -98.93471579
 C         -2.6895610355       -0.9532476260        0.6734332285
 C         -2.9850779653        0.2933103784        1.2837616072
 C         -4.3077774497        0.8598937568        1.0042199651
 C         -5.1680829993        0.1820921994        0.2231996321
 C         -6.5675802650        0.6061001611       -0.1313868813
 C         -6.6455252411        1.5788151143       -1.3159476275
 C         -6.1666990220        3.0008265714       -1.0211906415
 H         -6.4789168464        3.6245270089       -1.8611592087
 H         -6.6730139024        3.3762311353       -0.1313827871
 C         -4.6472671571        3.1332447651       -0.8461913545
 H         -4.1539970669        2.2482991658       -1.2552646058
 H         -4.2878367914        3.9913936443       -1.4185541464
 C         -4.1896591621        3.3294655935        0.5992572845
 H         -4.5676662959        4.2820060198        0.9772512394
 H         -3.0974587131        3.3717340920        0.6092298040
 C         -4.6289992963        2.2150803504        1.5580590430
 H         -4.0772607713        2.3304318199        2.4941837397
 H         -5.6953901368        2.2973818759        1.7674456430
 H         -6.0689501823        1.1649580683       -2.1464418171
 H         -7.6910446813        1.6274617875       -1.6289897909
 H         -7.1093972270       -0.3041230309       -0.3972918523
 H         -7.0460866645        1.0534492445        0.7403473566
 O         -4.8560264566       -1.0167349298       -0.3324393347
 C         -3.6075063393       -1.6045201766       -0.1520679970
 O         -3.4724169239       -2.6776007971       -0.7664438199
 H          1.1037502093       -0.4376200585        1.4109739184
 C          0.9038950386       -0.5376329063        0.3520820140
 C         -0.3077586312       -1.0708993249       -0.0619241927
 C         -0.5568420864       -1.1763072606       -1.4264040568
 C          0.3891476807       -0.7588426217       -2.3452973705
 C          1.5962792430       -0.2253414617       -1.9277556008
 C          1.8549542146       -0.1153938192       -0.5684546606
 N          3.0791970852        0.4397922629       -0.1310292098
 S          4.4807101153       -0.4200149366       -0.5340515234
 O          4.5512677888       -0.5474199647       -1.9658299816
 O          4.5340330585       -1.6545776716        0.2210611705
 C          5.7344585751        0.7060564332        0.0425389855
 C          6.3863400610        0.4548545963        1.2341285694
 C          7.3433860769        1.3546807283        1.6768373879
 C          7.6271582186        2.4851885359        0.9259664221
 C          6.9631894924        2.7236764775       -0.2684263490
 C          6.0067562503        1.8273909247       -0.7172780697
 H          5.4722518695        1.9680349868       -1.6419884040
 H          7.1882086388        3.6032121575       -0.8498851964
 H          8.3725985562        3.1835192376        1.2723792289
 H          7.8630951895        1.1706089598        2.6033673366
 H          6.1395502097       -0.4406940823        1.7816050580
 H          3.0775279902        0.5704117310        0.8733981596
 H          2.3423572417        0.0896400734       -2.6380948954
 H          0.1835084267       -0.8485367659       -3.4016113386
 H         -1.4955487130       -1.5958115946       -1.7570423522
 C         -1.3161669090       -1.5324253280        0.9593984803
 H         -1.0260281020       -1.0901808242        1.9263156134
 C         -1.3185608127       -3.0434219012        1.1424206774
 C         -0.7459714273       -4.0046033911        0.1493928697
 C         -0.0401920034       -3.7671303476        1.4486594515
 H         -0.0514382461       -4.5455938438        2.1963570213
 H          0.8779727981       -3.1986041757        1.4171659686
 H         -1.2680433349       -4.9369735019       -0.0008650739
 H         -0.3018845883       -3.6088531824       -0.7504055960
 H         -2.2035651924       -3.3801592911        1.6730850982
 O         -2.1781644967        0.8973972947        2.0410189173
