  62
        -98.94413929
 C          1.7253031627        1.4463638768        0.2011528156
 C          2.0021924812        0.6822020144       -0.9584507475
 C          2.8816354692       -0.4834564825       -0.7713358357
 C          3.3263148450       -0.7920557112        0.4597231150
 C          4.1927846916       -1.9709766784        0.7931821317
 C          3.3613453761       -3.2136270090        1.1409434551
 C          2.2710198006       -3.5404814020        0.1206629574
 H          1.7805931804       -4.4587654646        0.4504392093
 H          1.5145122667       -2.7541415500        0.1353406049
 C          2.7741036474       -3.7169748162       -1.3179926642
 H          3.8498100605       -3.8968216469       -1.3194371344
 H          2.2969306716       -4.5988989085       -1.7505859726
 C          2.4548559818       -2.5405354254       -2.2423353709
 H          1.3901133712       -2.3003264910       -2.1729596177
 H          2.6475191262       -2.8554839822       -3.2716168767
 C          3.2651470131       -1.2604117302       -2.0002763962
 H          4.3299234388       -1.5028082870       -1.9797883637
 H          3.0837495061       -0.5907591562       -2.8462991143
 H          4.0399152461       -4.0635127290        1.2330590537
 H          2.8857302232       -3.0546391650        2.1113887357
 H          4.8427849791       -2.1841848749       -0.0535681821
 H          4.8096296712       -1.7072460590        1.6540458767
 O          3.0020964849       -0.0656154399        1.5587385159
 C          2.2203108645        1.0728861856        1.4564091696
 O          2.0362856559        1.6611111491        2.5385276247
 H         -0.5101449572        1.3023760421       -1.6325162220
 C         -1.1345397772        1.5927731999       -0.8004493098
 C         -0.5906198647        2.3518671815        0.2251540780
 C         -1.4066658347        2.7062245449        1.2927025233
 C         -2.7321014087        2.3069098337        1.3306078569
 C         -3.2611769936        1.5211259985        0.3220609792
 C         -2.4476926034        1.1545158356       -0.7419622411
 N         -2.9398304162        0.2600822580       -1.7156267131
 S         -3.4753062687       -1.2022106596       -1.0837774564
 O         -3.0806134336       -2.2153188725       -2.0377244530
 O         -4.8909156007       -1.1104389821       -0.8241666687
 C         -2.6108734174       -1.4054173873        0.4690145168
 C         -3.3455243909       -1.5485092101        1.6284250343
 C         -2.6807070636       -1.6433290059        2.8402866418
 C         -1.2972308808       -1.5732634500        2.8738291594
 C         -0.5724678123       -1.4314992404        1.7008311806
 C         -1.2302137071       -1.3568794542        0.4841414358
 H         -0.6829227235       -1.2489009962       -0.4401334770
 H          0.5035084634       -1.3582252455        1.7348046642
 H         -0.7741147854       -1.6222097435        3.8157074095
 H         -3.2413622792       -1.7576253268        3.7538408768
 H         -4.4206900632       -1.5734901089        1.5570856824
 H         -2.2716170323        0.0891770596       -2.4549753993
 H         -4.2797177178        1.1679416132        0.3504898895
 H         -3.3545201642        2.5932216168        2.1641823321
 H         -0.9896932294        3.2798909167        2.1071018922
 C          0.8752915893        2.7111540132        0.1980594143
 H          1.1114870891        3.2286719736        1.1369333098
 C          1.1916652913        3.6433192748       -0.9549969878
 C          0.8363309539        5.0931915758       -0.8320351452
 C          2.2728641691        4.6672162147       -0.7946486210
 H          2.9018410802        4.8889040177       -1.6437444273
 H          2.7912169564        4.7031804201        0.1526805013
 H          0.3816153515        5.4208315271        0.0905578490
 H          0.4754833320        5.6106332227       -1.7076279168
 H          1.0883011589        3.1804758758       -1.9273418600
 O          1.5553956355        0.9360712398       -2.1107033855
