  62
        -98.94368870
 C         -1.1273295802       -1.6318657928       -0.4828576164
 C          0.0307437265       -1.3866662690       -1.2559571784
 C          1.2532938004       -2.1044991787       -0.8577899291
 C          1.2157376696       -2.9067857188        0.2197620155
 C          2.3433549126       -3.7154931692        0.8011295423
 C          3.0555771987       -2.9432526325        1.9240129411
 C          4.1927105155       -2.0399915532        1.4516304720
 H          4.5342696389       -1.4665149765        2.3165336878
 H          5.0282037658       -2.6565564611        1.1121420176
 C          3.8091118222       -1.0620277979        0.3381398195
 H          2.8254101582       -0.6426479116        0.5629907664
 H          4.5237664681       -0.2353234375        0.3595129401
 C          3.8257150002       -1.6998120135       -1.0601935461
 H          4.3296860609       -2.6645315538       -0.9993402205
 H          4.4264514068       -1.0800501931       -1.7295463980
 C          2.4559949969       -1.8793083166       -1.7328686913
 H          2.2094633319       -0.9824124343       -2.3097238007
 H          2.5210715182       -2.7034213200       -2.4516337810
 H          3.4624076195       -3.6586522766        2.6419758406
 H          2.3075966590       -2.3401345627        2.4461571569
 H          3.0430715876       -4.0123128280        0.0250136344
 H          1.8907767993       -4.6126844826        1.2290126086
 O          0.0954553653       -3.0644468787        0.9764047796
 C         -1.0887063121       -2.4172837986        0.6680783418
 O         -2.0142155242       -2.6340963125        1.4743731883
 O          0.0417281695       -0.6038852823       -2.2451507703
 C         -2.4143825161       -0.9064051253       -0.8433168626
 C         -2.6644590126        0.1350652962        0.2187599030
 C         -3.8057647642        0.2032737780        1.0049045494
 C         -3.8982929392        1.1490805693        2.0127474267
 C         -2.8591711841        2.0255013194        2.2660588600
 C         -1.7181142467        1.9733206781        1.4717627920
 C         -1.6456327703        1.0534614460        0.4411209448
 H         -0.7610205663        1.0122762758       -0.1765080058
 N         -0.6422201757        2.8477799120        1.6774875253
 S          0.9106442378        2.3676861754        1.2780006301
 O          1.1312935522        0.9631386310        1.5367175633
 O          1.7634774359        3.2791214532        2.0152159610
 C          1.0566568602        2.7348350192       -0.4582814545
 C          1.9287341959        1.9900967171       -1.2256455143
 C          2.0735082356        2.2981303760       -2.5686044069
 C          1.3493026026        3.3433016921       -3.1185884492
 C          0.4820863076        4.0867568494       -2.3328605352
 C          0.3339293105        3.7851411887       -0.9887877994
 H         -0.3367694952        4.3383745443       -0.3527511740
 H         -0.0819854282        4.8983075494       -2.7639365124
 H          1.4596857819        3.5765392023       -4.1659281752
 H          2.7444986141        1.7157482516       -3.1796096629
 H          2.4642007396        1.1755518863       -0.7664044390
 H         -0.6764674949        3.3965021178        2.5235367333
 H         -2.9238331013        2.7401853221        3.0722490308
 H         -4.7868493098        1.1901989713        2.6245316995
 H         -4.6125039671       -0.4925086144        0.8437482082
 H         -2.2005612166       -0.3859218726       -1.7882039598
 C         -3.5624112048       -1.8666333438       -1.0574134333
 C         -4.7356175391       -1.4493647705       -1.8917002825
 C         -3.7670175778       -2.4652408279       -2.4157466296
 H         -4.0824125249       -3.4956706995       -2.4813730644
 H         -3.0852528595       -2.1671544819       -3.1987666725
 H         -5.7199874533       -1.7829760079       -1.6005277979
 H         -4.7139811157       -0.4597941590       -2.3221287743
 H         -3.7433829717       -2.5033658306       -0.1994944899
