  62
        -98.94354794
 C         -0.9971036842       -1.1998576834       -0.6598369898
 C         -1.9765299571       -1.4693135071        0.3288940343
 C         -2.8423567161       -0.3504273850        0.7195049676
 C         -2.6330307297        0.8594707445        0.1708949871
 C         -3.4540034957        2.0842338870        0.4524964260
 C         -4.6234306970        2.2109257755       -0.5338447338
 C         -5.4430493889        0.9296554789       -0.6855080583
 H         -6.2584000167        1.1448250049       -1.3794124236
 H         -4.8197011782        0.1611470090       -1.1480084736
 C         -6.0204658434        0.3869544228        0.6290932952
 H         -6.0118952803        1.1691100117        1.3891126820
 H         -7.0627857255        0.1057177140        0.4648237552
 C         -5.3053808610       -0.8521123480        1.1713714480
 H         -5.2281281962       -1.6052406286        0.3832035802
 H         -5.9189669284       -1.2764980425        1.9705294018
 C         -3.9038940190       -0.6163071001        1.7493288227
 H         -3.9375975169        0.1920500068        2.4835099393
 H         -3.5966148955       -1.5313066563        2.2647143082
 H         -5.2715321612        3.0224938324       -0.1981406008
 H         -4.2217280412        2.4782591138       -1.5137284963
 H         -3.8270981690        2.0356990448        1.4739225949
 H         -2.8100989392        2.9603109717        0.3558226945
 O         -1.6685167593        1.0923492540       -0.7508950069
 C         -0.8231949635        0.0783605698       -1.1932027039
 O          0.0017298036        0.4587957445       -2.0416681207
 O         -2.1227439764       -2.6061533442        0.8570774125
 C         -0.0760375243       -2.3492212577       -1.0306186495
 C          1.0943129994       -2.3889675148       -0.0797104334
 C          1.5356577958       -3.5826559937        0.4789851621
 C          2.5928911740       -3.5909121227        1.3721746097
 C          3.2096020548       -2.4102229979        1.7459231652
 C          2.7712800423       -1.2110812542        1.1960271178
 C          1.7397723815       -1.2120122787        0.2706362012
 H          1.4175817001       -0.2772490154       -0.1594910761
 N          3.3540363442        0.0152670078        1.5484987917
 S          2.3654128451        1.3616261523        1.7023827263
 O          3.1106412455        2.2498265075        2.5731965876
 O          1.0427449616        1.0032496992        2.1632767738
 C          2.2957016350        2.0912531350        0.0824217488
 C          3.3770745754        1.9769534934       -0.7673911751
 C          3.3165568969        2.5903471958       -2.0078019661
 C          2.1881878680        3.3084350573       -2.3713423101
 C          1.1146610294        3.4193549361       -1.5031801642
 C          1.1675427917        2.8062989227       -0.2626570153
 H          0.3447730223        2.8477039859        0.4345881634
 H          0.2309403653        3.9662832708       -1.7903653799
 H          2.1399411177        3.7784637438       -3.3409730690
 H          4.1465926084        2.5006101425       -2.6901734358
 H          4.2344462452        1.4034308435       -0.4559631421
 H          4.0396935190       -0.0304281910        2.2886047703
 H          4.0161229692       -2.4125506353        2.4631462205
 H          2.9277961060       -4.5242496815        1.7985804026
 H          1.0318474050       -4.5040658309        0.2263638698
 H         -0.6691826301       -3.2617366789       -0.8571695638
 C          0.3506134631       -2.3505181652       -2.4909508017
 C          1.7201707634       -1.9537315172       -2.9443324051
 C          1.3050354400       -3.3915425815       -2.9972891169
 H          1.1134426729       -3.8413243974       -3.9596422064
 H          1.7405525134       -4.0630969956       -2.2731495445
 H          1.7987631136       -1.3953141668       -3.8639465809
 H          2.4342154168       -1.6535744716       -2.1936118126
 H         -0.4690050384       -2.0800216210       -3.1485771426
