  62
        -98.93919700
 C          2.1085511691        1.5234793216        0.0584904462
 C          1.9051778976        0.3616877545       -0.7230213125
 C          3.0250881831       -0.5953841471       -0.7619049613
 C          4.1533746321       -0.3227983699       -0.0844672445
 C          5.4227280588       -1.1344754390       -0.0193163128
 C          5.2809411838       -2.6514895320        0.1740225757
 C          4.0551530543       -3.0939913055        0.9865840333
 H          4.3804355878       -3.7775011751        1.7732088895
 H          3.5961162818       -2.2324180983        1.4744021202
 C          3.0082823765       -3.8192501116        0.1378162086
 H          2.3728881885       -4.4129844956        0.7991277154
 H          3.5232523783       -4.5131999395       -0.5303102841
 C          2.0872406580       -2.9197862592       -0.6865955014
 H          1.4998268940       -3.5632221939       -1.3455172603
 H          1.3850415204       -2.4018561597       -0.0277415274
 C          2.7897295904       -1.8553007119       -1.5444531773
 H          3.7123629212       -2.2389734310       -1.9734723826
 H          2.1145296021       -1.5810585122       -2.3596056081
 H          6.1901009791       -2.9923156605        0.6722516911
 H          5.2555195869       -3.1411163124       -0.7986339912
 H          5.9980135972       -0.9414900500       -0.9294428553
 H          5.9882510499       -0.7101330363        0.8137008634
 O          4.3059372978        0.8144090529        0.6521945159
 C          3.2957607211        1.7545954087        0.7507641518
 O          3.5699840277        2.7339629472        1.4742340911
 H         -1.5436852843        2.4676510370       -0.8836519142
 C         -1.4551619858        1.9549370802        0.0610533862
 C         -0.2383167898        1.9215659768        0.7210873932
 C         -0.1597053646        1.2458935649        1.9367174830
 C         -1.2691448081        0.6230273609        2.4743883913
 C         -2.4825360279        0.6519848996        1.8083141785
 C         -2.5694137833        1.3168470958        0.5933419168
 N         -3.7901675556        1.3333784251       -0.0997439772
 S         -4.6848472848       -0.0788545007       -0.1573907091
 O         -5.4420025923        0.0071782542       -1.3871000929
 O         -5.4684351212       -0.2033306280        1.0474632830
 C         -3.5005701829       -1.4117828816       -0.2409030472
 C         -2.4920135608       -1.3478894217       -1.1812636053
 C         -1.5640011735       -2.3738333725       -1.2402919356
 C         -1.6639919964       -3.4461140410       -0.3675263412
 C         -2.6880906334       -3.5012603590        0.5651435248
 C         -3.6143657216       -2.4732480904        0.6340586366
 H         -4.4185368852       -2.4692979954        1.3521168794
 H         -2.7631624586       -4.3372228074        1.2420005300
 H         -0.9366843924       -4.2414954579       -0.4133747671
 H         -0.7578551754       -2.3127481814       -1.9529023872
 H         -2.4231262699       -0.5045995089       -1.8487054977
 H         -3.7452152486        1.7767644766       -1.0054439095
 H         -3.3592718750        0.1734755800        2.2138092589
 H         -1.1911245812        0.1065775945        3.4190983843
 H          0.7907231555        1.2147232174        2.4526680434
 C          1.0102964570        2.5660418102        0.1710272649
 H          1.3650691388        3.3031954587        0.9055368854
 C          0.8126701350        3.2624254742       -1.1590276812
 C          0.2363468921        4.6449299612       -1.2061664161
 C          1.6891725502        4.4274888303       -1.5026691586
 H          2.0302802048        4.5338440046       -2.5215968828
 H          2.4166556265        4.7355894405       -0.7657215327
 H         -0.4184120537        4.9061879944       -2.0240925115
 H         -0.0252968047        5.1094795074       -0.2674649606
 H          0.5647293600        2.5749861585       -1.9596611492
 O          0.8497740827        0.1351118575       -1.3679277972
