  62
        -98.95212220
 C          2.3619876839        0.3119210096        0.0406611595
 C          1.5116283864       -0.2464359257       -0.9415424564
 C          1.4924175977       -1.7123993733       -1.0208126968
 C          2.2629628142       -2.4255461855       -0.1796632608
 C          2.3567723741       -3.9237367599       -0.1610691138
 C          1.3609375892       -4.5512936588        0.8222671997
 C         -0.0722177802       -4.0420463572        0.6679124287
 H         -0.6928237121       -4.6012500597        1.3725550115
 H         -0.1219786293       -2.9935202451        0.9709604697
 C         -0.6518790952       -4.1844337831       -0.7462442749
 H         -1.6736619174       -4.5614071971       -0.6644704456
 H         -0.0777551586       -4.9186583282       -1.3135467204
 C         -0.7239119789       -2.8705542829       -1.5268616111
 H         -1.3876227116       -3.0164764194       -2.3836149630
 H         -1.1707547427       -2.1044774638       -0.8881301034
 C          0.6110504837       -2.3383980778       -2.0646916405
 H          1.1409266538       -3.1369395522       -2.5891264141
 H          0.3889767623       -1.5436318484       -2.7828597812
 H          1.3802791951       -5.6345090935        0.6840180062
 H          1.6920566212       -4.3328172560        1.8402931116
 H          3.3697804218       -4.1961594686        0.1417635008
 H          2.1751877994       -4.3017944230       -1.1655820873
 O          3.0507451132       -1.8549700262        0.7684731803
 C          3.1052008643       -0.4785397140        0.9148004419
 O          3.8473894659       -0.0858594293        1.8397175966
 O          0.8142598178        0.4496805371       -1.7265593797
 C          2.4590921994        1.8206632475        0.1813066875
 C          1.0825003184        2.4225794493        0.3252539373
 C          0.6932014034        3.5980813061       -0.3054784293
 C         -0.5923547536        4.0867545465       -0.1481295678
 C         -1.5206709275        3.4053029411        0.6174989227
 C         -1.1370642336        2.2346599837        1.2613150059
 C          0.1629508325        1.7728083456        1.1383479207
 H          0.4478519927        0.8642210056        1.6488346216
 N         -2.0483045876        1.4890607475        2.0383523473
 S         -2.3874645058       -0.0728607047        1.5313646444
 O         -3.3659394901       -0.5681482403        2.4762133178
 O         -1.1678089810       -0.8287761077        1.4222460429
 C         -3.1660969032        0.1309680773       -0.0615572771
 C         -2.3962886993        0.4413750521       -1.1648741653
 C         -3.0321037460        0.6520199328       -2.3795576511
 C         -4.4114235366        0.5537605141       -2.4710279409
 C         -5.1693010186        0.2434712148       -1.3516348216
 C         -4.5429265957        0.0343185344       -0.1342060297
 H         -5.0883285588       -0.2126677219        0.7623768558
 H         -6.2421889860        0.1654315073       -1.4231571145
 H         -4.8972357039        0.7189026207       -3.4197925707
 H         -2.4342297183        0.8918834326       -3.2441574941
 H         -1.3220625762        0.5082624697       -1.0828831523
 H         -2.9180181067        1.9722767666        2.2184566166
 H         -2.5318533876        3.7704544252        0.7172202833
 H         -0.8805226947        5.0004004982       -0.6451517267
 H          1.3956837965        4.1293628728       -0.9266165886
 H          3.0184730399        2.0067077538        1.1103113589
 C          3.2418155114        2.3939241507       -0.9837722883
 C          4.0857836544        3.6191783013       -0.8044180164
 C          4.7355566408        2.2798625785       -0.9750909315
 H          5.2422911920        2.0636497716       -1.9036175348
 H          5.1890057161        1.8134507443       -0.1122728404
 H          4.1515294847        4.3245372487       -1.6191165896
 H          4.1109801281        4.0708408596        0.1757718512
 H          2.7355767175        2.2526717372       -1.9320212838
