  62
        -98.93736168
 C         -2.2793876388        0.5259816427        0.2390541788
 C         -3.5341161728        1.0192664102        0.6807356651
 C         -4.7045782691        0.6268512610       -0.1144895872
 C         -4.5249376586       -0.1157490793       -1.2215722640
 C         -5.6297529984       -0.6385200488       -2.0922514707
 C         -6.0854411821       -2.0304528629       -1.6320111820
 C         -6.3675946305       -2.1242709004       -0.1323854010
 H         -6.7100230383       -3.1412358918        0.0709794924
 H         -5.4325417856       -1.9861539903        0.4156855836
 C         -7.4096128261       -1.1211202085        0.3820325117
 H         -7.9940620506       -0.7334727996       -0.4530845314
 H         -8.1004647617       -1.6441775197        1.0465605148
 C         -6.8264394747        0.0483710119        1.1774723983
 H         -7.6511701000        0.5684730908        1.6718385771
 H         -6.1658852703       -0.3337214606        1.9602053873
 C         -6.0529545495        1.0906345597        0.3600208805
 H         -5.8619209079        1.9490753263        1.0106310337
 H         -6.6632323165        1.4254729034       -0.4810487256
 H         -6.9830820841       -2.3020081022       -2.1904127846
 H         -5.3010099098       -2.7500332373       -1.8778899653
 H         -5.2575372721       -0.7073748420       -3.1156829311
 H         -6.4664350133        0.0568283025       -2.0653114970
 O         -3.3020096145       -0.5152949548       -1.6513695273
 C         -2.1477320960       -0.2156854371       -0.9360743748
 O         -1.1079967561       -0.6565860564       -1.4589071045
 O         -3.6674734291        1.7575566256        1.6932500853
 C         -1.0579917094        0.8862403265        1.0646630023
 C          0.0641434924        1.3669605664        0.1808937454
 C         -0.1074907543        2.5488166045       -0.5360364008
 C          0.8949901059        3.0307723475       -1.3544184973
 C          2.0981633974        2.3552920552       -1.4607612085
 C          2.2760274838        1.1710105854       -0.7563549687
 C          1.2618704779        0.6829611055        0.0558603602
 H          1.4203363476       -0.2487796830        0.5726393799
 N          3.4736233284        0.4471017333       -0.8642272015
 S          4.0375996439       -0.3880938170        0.4873691718
 O          3.4188481771       -1.6886509138        0.5379096441
 O          3.8959140810        0.4313361414        1.6707255369
 C          5.7611666882       -0.5605788958        0.0609067949
 C          6.1345147161       -1.5792275672       -0.7955895910
 C          7.4679795409       -1.6980791448       -1.1536558091
 C          8.4005616063       -0.8013997051       -0.6532765313
 C          8.0112371042        0.2148395934        0.2062334917
 C          6.6789326803        0.3402318598        0.5674429472
 H          6.3311337776        1.1086810405        1.2389443677
 H          8.7389470334        0.9082523200        0.5959281580
 H          9.4378099148       -0.8972825373       -0.9328761217
 H          7.7746726697       -2.4884644018       -1.8195843370
 H          5.3757988300       -2.2567033857       -1.1516929767
 H          4.2094384269        0.9616915758       -1.3278034375
 H          2.8859875087        2.7339950942       -2.0942150484
 H          0.7445656172        3.9461945138       -1.9069158970
 H         -1.0452242957        3.0808337304       -0.4459982059
 H         -1.3876943505        1.7394885853        1.6822199187
 C         -0.6212779103       -0.2029313289        2.0329481555
 C         -1.6198180848       -1.1263968501        2.6618862888
 C         -0.6322335298       -1.6556261312        1.6677221925
 H          0.1803085550       -2.2752468120        2.0197490193
 H         -0.9803845325       -1.9213611693        0.6816540864
 H         -1.4961041921       -1.3863961697        3.7023291026
 H         -2.6507803509       -1.0297321715        2.3536112909
 H          0.1963999370        0.1273447383        2.6683126886
