  62
        -98.93776243
 C         -1.9559786076       -1.1812252925       -0.1130491865
 C         -2.4275960199       -0.0062344379       -0.7436385820
 C         -3.8846022561        0.2135350754       -0.7011963218
 C         -4.6734735056       -0.6901564617       -0.0953653373
 C         -6.1767400963       -0.6902219546        0.0279929190
 C         -6.8585751744        0.6395053709        0.3792798627
 C         -6.0408511068        1.5696079286        1.2873212614
 H         -6.6646290107        1.8843704184        2.1260014188
 H         -5.1852077129        1.0330304740        1.7007355350
 C         -5.5528050638        2.8293679184        0.5677570873
 H         -5.3175813717        3.5917399998        1.3143174239
 H         -6.3661592317        3.2170799192       -0.0496133966
 C         -4.3085950043        2.6494211915       -0.3014199906
 H         -3.4319072714        2.4860276925        0.3317090495
 H         -4.1394478000        3.5824655628       -0.8445496149
 C         -4.3707904066        1.4948160915       -1.3146774055
 H         -5.3689819457        1.3895650954       -1.7328933427
 H         -3.6745421576        1.7234650588       -2.1263325849
 H         -7.1122419253        1.1720401676       -0.5362723388
 H         -7.8016733329        0.3902210139        0.8685445821
 H         -6.5942538282       -1.0694340565       -0.9092247674
 H         -6.3976492260       -1.4302155633        0.8008823862
 O         -4.1735829889       -1.8129772954        0.4950687461
 C         -2.8166871836       -2.0827812815        0.5106781407
 O         -2.5067075787       -3.1356740625        1.1041329766
 H          1.5607825760        0.1178570623       -1.1017735576
 C          1.2789769331        0.3516041335       -0.0896385092
 C          0.2785751665       -0.3600013867        0.5516246664
 C         -0.0673058180       -0.0017599830        1.8531388868
 C          0.5607900718        1.0516469580        2.4870038312
 C          1.5556607606        1.7649245995        1.8403884089
 C          1.9113575952        1.4145884470        0.5440066302
 N          2.8990100576        2.1405255500       -0.1390762823
 S          4.0685405522        1.3765988630       -1.0536413365
 O          5.0603638676        2.4009046358       -1.2954217313
 O          3.4837040006        0.7661814709       -2.2192396574
 C          4.7398838839        0.1317298417        0.0324608888
 C          5.7004674630        0.5131495490        0.9492884127
 C          6.1896743758       -0.4282514929        1.8397971875
 C          5.7054474250       -1.7273506602        1.8047440481
 C          4.7411888913       -2.0939159205        0.8788421325
 C          4.2506292352       -1.1575805122       -0.0178880145
 H          3.5052490881       -1.4080671954       -0.7542001852
 H          4.3673407493       -3.1050785374        0.8508215118
 H          6.0834862645       -2.4598779895        2.5003618990
 H          6.9435294037       -0.1476780075        2.5576326068
 H          6.0575254320        1.5301666963        0.9350658035
 H          3.2976399986        2.9027364851        0.3890026955
 H          2.0416799274        2.5952127966        2.3298725686
 H          0.2763497249        1.3211892854        3.4930391664
 H         -0.8487134882       -0.5576093352        2.3542780316
 C         -0.4700392568       -1.4970246117       -0.0993159487
 H         -0.3580260334       -2.3892571361        0.5336568679
 C          0.0066787958       -1.8307566227       -1.4966748728
 C          1.1719360962       -2.7516408207       -1.6926807824
 C         -0.2140696782       -3.2146684215       -2.0259487876
 H         -0.4860384354       -3.3322065758       -3.0641836511
 H         -0.6885038053       -3.9272392445       -1.3666682656
 H          1.6354840952       -3.1625682917       -0.8082693604
 H          1.8565876027       -2.5508150898       -2.5037827843
 H         -0.1179552582       -1.0092257262       -2.1930611637
 O         -1.6765129128        0.8196442631       -1.3244784207
