  62
        -98.93757293
 C          2.2419192704        0.8097474159        0.0411074753
 C          3.5722922519        1.2278406368        0.3033338045
 C          4.6343801146        0.4655434703       -0.3614744270
 C          4.3114419428       -0.5676618045       -1.1598274064
 C          5.2760963158       -1.4244819397       -1.9341533609
 C          5.8879110657       -2.5706570534       -1.1170023620
 C          6.9239805676       -2.1459911150       -0.0755194939
 H          7.4241974025       -3.0540340634        0.2668922483
 H          7.6782959465       -1.5180339890       -0.5505475814
 C          6.3362774537       -1.4176166140        1.1412858241
 H          5.2594222708       -1.5966053273        1.1870802087
 H          6.7679290839       -1.8298348401        2.0561115619
 C          6.5887450640        0.0900114102        1.1609428153
 H          6.0999968948        0.5081074006        2.0445653868
 H          7.6606628178        0.2809447069        1.2469059457
 C          6.0574862861        0.8358955771       -0.0701783053
 H          6.6877641200        0.6311386432       -0.9352909200
 H          6.0859104225        1.9079044506        0.1395723547
 H          5.0799548899       -3.1183614849       -0.6262665041
 H          6.3702965106       -3.2514505254       -1.8221541937
 H          6.0721736297       -0.8015108310       -2.3429363282
 H          4.7107621538       -1.8559821467       -2.7630488767
 O          3.0250455160       -0.9522538569       -1.3707050659
 C          1.9602869300       -0.2972313161       -0.7606691222
 O          0.8512567731       -0.8030015782       -1.0173780875
 O          3.8575408855        2.1931677203        1.0602530158
 C          1.1207481695        1.5800298731        0.7148434379
 C          0.1178201498        0.6299244919        1.3188749273
 C          0.5368586417       -0.2215923746        2.3379523905
 C         -0.3380437188       -1.1271972266        2.9044775326
 C         -1.6492096974       -1.1995162367        2.4688896014
 C         -2.0821464459       -0.3455888274        1.4611731225
 C         -1.2009523590        0.5667907164        0.8976981259
 H         -1.5507783550        1.1980586760        0.0995623871
 N         -3.4284952328       -0.3723933898        1.0521383877
 S         -3.8808117895       -0.1067525210       -0.5505321662
 O         -3.3349728308       -1.1273503216       -1.4174325528
 O         -3.6037467077        1.2617172565       -0.9047873445
 C         -5.6436641094       -0.3314062874       -0.3851796565
 C         -6.2205675749       -1.5283445421       -0.7644703288
 C         -7.5876144378       -1.6947664606       -0.6058771472
 C         -8.3501081881       -0.6677392910       -0.0706220799
 C         -7.7572814442        0.5289205538        0.3044705713
 C         -6.3914508281        0.7016203485        0.1474511871
 H         -5.8881675620        1.6151665093        0.4176154316
 H         -8.3539905568        1.3260736700        0.7176577785
 H         -9.4136451603       -0.7992915318        0.0513229927
 H         -8.0513169876       -2.6226513523       -0.8999361109
 H         -5.5890710345       -2.2951308279       -1.1841114303
 H         -3.9138846934       -1.1869665677        1.4049957058
 H         -2.3316047145       -1.9138049951        2.9046031402
 H          0.0031061594       -1.7883727432        3.6871288024
 H          1.5657435514       -0.1725079159        2.6690956048
 H          1.6171800380        2.1196227304        1.5394827889
 C          0.4794358266        2.6384119480       -0.1696668620
 C          1.2524390171        3.3215606808       -1.2565471680
 C          0.1377608818        2.3837740719       -1.6059496607
 H         -0.7865458617        2.7904775028       -1.9909962321
 H          0.3820063208        1.4151082083       -2.0145843585
 H          1.1013403893        4.3800411945       -1.4055455023
 H          2.2669760424        2.9943836655       -1.4320298137
 H         -0.2161761196        3.2605495994        0.3861352078
