  62
        -98.93868307
 C         -1.3122660351       -1.3555703167        0.6861883426
 C         -2.2838292895       -1.2329354281       -0.3325948818
 C         -3.2210940799       -0.0923989165       -0.2254046080
 C         -3.0597469824        0.7946189024        0.7734374938
 C         -3.8604991312        2.0369853224        1.0682127613
 C         -3.5789274694        3.1949037451        0.0984994114
 C         -3.5414617246        2.8048069156       -1.3759370718
 H         -3.2462043178        3.6892741730       -1.9465305430
 H         -2.7712256908        2.0473232478       -1.5313810558
 C         -4.8639346744        2.2971464338       -1.9445001786
 H         -5.6387248364        3.0499513280       -1.7842888132
 H         -4.7310469773        2.1836241976       -3.0234949432
 C         -5.3531654978        0.9584904464       -1.3857733760
 H         -6.1243626640        0.5840344894       -2.0650646484
 H         -5.8307400049        1.0823512186       -0.4174058498
 C         -4.2777539066       -0.1200256894       -1.3040848340
 H         -4.7690504699       -1.0948379181       -1.1996123501
 H         -3.7446257012       -0.1716041473       -2.2603372251
 H         -4.3408555958        3.9611987380        0.2520919638
 H         -2.6100696468        3.6310989068        0.3519501832
 H         -4.9207002470        1.8004792454        1.0802980907
 H         -3.5828942296        2.3521276831        2.0765981610
 O         -2.0606013616        0.6715549269        1.6948445434
 C         -1.1786332521       -0.3861550894        1.6837494150
 O         -0.3312515543       -0.3635671652        2.5988823917
 H          2.0013346242       -1.3138748368        1.3535553561
 C          1.9483971193       -1.5362039054        0.2955919367
 C          0.8210664651       -2.1742738380       -0.2056579076
 C          0.7471236505       -2.4206050690       -1.5718866954
 C          1.7808459746       -2.0390061244       -2.4094309822
 C          2.9055441410       -1.4079719116       -1.9063402596
 C          2.9834948244       -1.1521177597       -0.5442916837
 N          4.1183139472       -0.4782689109       -0.0323284320
 S          4.1989649807        1.1508392705       -0.4165680635
 O          4.2483195652        1.2836634418       -1.8494605780
 O          5.3274630341        1.6747876852        0.3176015445
 C          2.6818653147        1.8403460226        0.2176721821
 C          2.6835282766        2.4216388206        1.4696220287
 C          1.4897341944        2.8886226555        1.9936689715
 C          0.3188845717        2.7557827346        1.2647422020
 C          0.3329387855        2.1642708785        0.0117416596
 C          1.5237887600        1.6982172623       -0.5201862472
 H          1.5684761006        1.2322437136       -1.4917107602
 H         -0.5822537625        2.0510557516       -0.5485172411
 H         -0.6134141102        3.1008975040        1.6829910603
 H          1.4711599361        3.3436448575        2.9709054894
 H          3.6169678233        2.5037106562        2.0034779603
 H          4.2106580012       -0.5748507967        0.9700692652
 H          3.7096905132       -1.0873113708       -2.5482548388
 H          1.7094320732       -2.2334326960       -3.4689618969
 H         -0.1382340702       -2.8836830142       -1.9771346290
 C         -0.3097608266       -2.4994819779        0.7385924247
 H          0.0968366750       -2.4876486243        1.7588414373
 C         -0.9267391481       -3.8587954061        0.4862362792
 C         -0.1488933830       -5.0832793212        0.8606030750
 C         -1.3591589822       -4.6924840763        1.6531681494
 H         -2.2546347860       -5.2879149648        1.5565864544
 H         -1.2112636234       -4.2863342556        2.6434957730
 H         -0.2104939774       -5.9493324174        0.2198368523
 H          0.8211210350       -4.9399272849        1.3128012931
 H         -1.5397457478       -3.9024106646       -0.4034418101
 O         -2.3975749018       -2.0293989318       -1.3010219594
