  62
        -98.93881116
 C         -2.7917063899       -0.1598580135       -0.3368654371
 C         -2.8751695014        0.7656504900        0.7358355236
 C         -2.5112398454        2.1520856932        0.4337596682
 C         -2.1311835955        2.4809531441       -0.8137223486
 C         -1.6969461950        3.8435353409       -1.2792291573
 C         -0.2188898539        4.1397331211       -0.9879411498
 C          0.1044078445        4.4454207689        0.4753346440
 H          1.1070022008        4.8769650226        0.4981789899
 H         -0.5865937416        5.2004458642        0.8527576012
 C          0.0818505535        3.2162443424        1.3948541997
 H          0.1624438613        2.3060336250        0.7941564972
 H          0.9604297374        3.2288556102        2.0450836031
 C         -1.1454906251        3.1173594807        2.3015801931
 H         -1.0768689848        2.1787058840        2.8580208576
 H         -1.1341730385        3.9393012954        3.0216603543
 C         -2.4900289252        3.1366764783        1.5633375581
 H         -2.7032040789        4.1403953080        1.1960884142
 H         -3.2712740088        2.8467620455        2.2706320816
 H          0.3798828798        3.2852516803       -1.3142894899
 H          0.0675526487        5.0039597917       -1.5920674584
 H         -1.8486704099        3.8674497859       -2.3604741212
 H         -2.3231808625        4.6095283047       -0.8209640052
 O         -2.1080176265        1.5787693720       -1.8270221224
 C         -2.3815742166        0.2328934356       -1.6111780940
 O         -2.2354175888       -0.4706989228       -2.6295363114
 O         -3.2391278658        0.4383267883        1.8976167455
 C         -3.0256123264       -1.6183466741        0.0227753828
 C         -1.7289209491       -2.1643647696        0.5679746460
 C         -1.6591370459       -2.8297318060        1.7852113819
 C         -0.4368269013       -3.2138902364        2.3116878772
 C          0.7407345661       -2.9254277952        1.6442937311
 C          0.6764912924       -2.2789261753        0.4195058799
 C         -0.5467898157       -1.9193962845       -0.1175851222
 H         -0.5764251728       -1.3995783433       -1.0655909349
 N          1.8860054720       -1.8925974802       -0.2341630802
 S          2.2332143324       -0.2739092593        0.1495976546
 O          2.0124172456       -0.0952074825        1.5617498100
 O          1.5161009209        0.6149558182       -0.7413269263
 C          3.9795108383       -0.2119140934       -0.2027088435
 C          4.8487547939       -0.7626814868        0.7190342587
 C          6.2056379639       -0.7697106336        0.4396542833
 C          6.6679492479       -0.2306692314       -0.7519585618
 C          5.7833193145        0.3194601597       -1.6667760305
 C          4.4241855952        0.3281222468       -1.3931954618
 H          3.7008254708        0.7499192606       -2.0727563944
 H          6.1448777948        0.7397213776       -2.5914864227
 H          7.7244537960       -0.2381406647       -0.9687514772
 H          6.8968141558       -1.1950854261        1.1492438913
 H          4.4418355284       -1.1621733197        1.6330389405
 H          1.7790374932       -1.9302232817       -1.2409090865
 H          1.7014928005       -3.1764236877        2.0623421928
 H         -0.4008257828       -3.7197100991        3.2644489350
 H         -2.5690162130       -3.0147449426        2.3373386200
 H         -3.7508148805       -1.5999523023        0.8518479617
 C         -3.6210514062       -2.4597647186       -1.0936428464
 C         -2.8515242426       -3.5182612033       -1.8200023187
 C         -3.9233300795       -3.9090125438       -0.8500563307
 H         -4.8466321625       -4.3157645282       -1.2329320381
 H         -3.6105942260       -4.3282589523        0.0943143224
 H         -3.0346602600       -3.6307778652       -2.8774910273
 H         -1.8233538417       -3.6849455732       -1.5383547221
 H         -4.3405729239       -1.9016848397       -1.6828024098
