  62
        -98.93910211
 C          1.5179975705        0.8427582481       -0.3838206515
 C          2.7974338179        1.4409211176       -0.3834073477
 C          3.9454448937        0.5294023192       -0.5349354088
 C          3.7177083781       -0.7889894274       -0.6687569057
 C          4.7403043536       -1.8861651712       -0.7793740529
 C          5.0507759851       -2.4814062090        0.6045835349
 C          6.1537763046       -1.7642439515        1.3820461795
 H          6.1818371449       -2.1998692943        2.3835359984
 H          7.1170460838       -1.9683568453        0.9097265582
 C          5.9846706247       -0.2480944585        1.5105370726
 H          4.9436826457       -0.0117323181        1.7384613762
 H          6.5845707257        0.0851669946        2.3597457787
 C          6.4314614065        0.5176050446        0.2562932082
 H          6.9913487719       -0.1563809121       -0.3918563159
 H          7.1219177853        1.3128702328        0.5451400770
 C          5.3008759742        1.1823153829       -0.5431468169
 H          5.1240751770        2.1898379646       -0.1532260898
 H          5.6232362160        1.3038958650       -1.5828057676
 H          4.1258478846       -2.4749246028        1.1868998538
 H          5.3503608724       -3.5238134096        0.4788177179
 H          4.2940901887       -2.6655020895       -1.4003925631
 H          5.6426809558       -1.5257858903       -1.2642040799
 O          2.4654380010       -1.3234412000       -0.6671461074
 C          1.3366370923       -0.5336780843       -0.5219148106
 O          0.2619484214       -1.1592881561       -0.5317605391
 O          2.9763638698        2.6828170018       -0.2504392273
 C          0.2885844571        1.7190026782       -0.2362979756
 C         -0.5502492813        1.2500240599        0.9259177917
 C          0.0673436228        0.9727646087        2.1432700954
 C         -0.6662262841        0.5150062994        3.2197640487
 C         -2.0308289330        0.3129885412        3.1050997548
 C         -2.6599409556        0.6046213344        1.9016076308
 C         -1.9222652129        1.0844912817        0.8272069720
 H         -2.4397774547        1.3277869192       -0.0844199684
 N         -4.0417219817        0.4299618375        1.7595516687
 S         -4.7256233603        0.0811733619        0.2788928150
 O         -4.7980002195        1.2753898657       -0.5259984013
 O         -5.9985204843       -0.5217178991        0.6149061728
 C         -3.6752681092       -1.1264412854       -0.5072973444
 C         -3.2310813929       -0.9011523174       -1.7933564883
 C         -2.4353932751       -1.8548495651       -2.4055722102
 C         -2.0969463518       -3.0112461727       -1.7229563145
 C         -2.5530874244       -3.2244015250       -0.4323513485
 C         -3.3512568268       -2.2758211322        0.1839236890
 H         -3.7222020272       -2.4176324767        1.1862699249
 H         -2.2811478556       -4.1234354596        0.0970739098
 H         -1.4672002119       -3.7469913167       -2.1974415131
 H         -2.0732153192       -1.6883320545       -3.4080100625
 H         -3.5107522666        0.0167416761       -2.2867316313
 H         -4.5008192023       -0.0486150290        2.5195165050
 H         -2.6032239783       -0.0607148398        3.9401223178
 H         -0.1712869716        0.3014015044        4.1552884368
 H          1.1360077962        1.1147035432        2.2307732876
 H          0.6662485045        2.7277337303       -0.0117964412
 C         -0.4747328643        1.7611817787       -1.5437938122
 C         -1.2958661219        2.9613375830       -1.9056393424
 C         -0.0150590607        2.6824338194       -2.6319960081
 H         -0.0636612344        2.3387562783       -3.6543225593
 H          0.8390065247        3.3099251474       -2.4226116419
 H         -2.2318356303        2.8119296690       -2.4234977805
 H         -1.3134040416        3.7838371710       -1.2064311509
 H         -0.8410860473        0.7830077526       -1.8368797275
