  62
        -98.93877121
 C          1.3612613998        1.2632908199        0.0625718703
 C          2.3362305000        0.9328322904        1.0309827502
 C          3.0674838502       -0.3242585295        0.8095656905
 C          2.7479938102       -1.0896238299       -0.2501336292
 C          3.4530264004       -2.3548287399       -0.6499152089
 C          4.7873350602       -2.0139691299       -1.3441279193
 C          6.0306038304       -2.4698718294       -0.5804208393
 H          6.1443592206       -3.5495785894       -0.6983510490
 H          6.8947477302       -1.9948494194       -1.0497354596
 C          6.0454210006       -2.1594004589        0.9196904606
 H          7.0747114207       -2.2892573386        1.2609137304
 H          5.4463627008       -2.8984990989        1.4540615209
 C          5.5680163804       -0.7578173489        1.3213940302
 H          5.6953308101       -0.0564177991        0.4964943700
 H          6.2011287205       -0.4052894885        2.1382856700
 C          4.1133510805       -0.6957598490        1.8241015604
 H          3.8485797407       -1.6479647189        2.2929616208
 H          4.0433392804        0.0783835812        2.5943361102
 H          4.8285243600       -0.9333035599       -1.4951395196
 H          4.8095320701       -2.4704508602       -2.3347430191
 H          2.7978330404       -2.8942111502       -1.3339679887
 H          3.6255870106       -2.9742571496        0.2275516112
 O          1.7786957300       -0.7548038704       -1.1404750092
 C          1.0659601098        0.4311829495       -1.0179453094
 O          0.2181155196        0.6176474891       -1.9069108593
 O          2.5781678401        1.6504633408        2.0403377700
 C          0.5618646396        2.5438631998        0.2209082700
 C         -0.9103932503        2.2205258396        0.2909367904
 C         -1.8824514606        2.9083618192       -0.4226191297
 C         -3.2132063005        2.5348961789       -0.3365234494
 C         -3.6034610402        1.4731130791        0.4577189010
 C         -2.6394019799        0.7850487395        1.1835515511
 C         -1.3103078800        1.1660990897        1.1031531707
 H         -0.5625940298        0.6236843101        1.6692673008
 N         -3.0219244896       -0.3133907903        1.9798790615
 S         -3.8896594895       -1.5171942907        1.1974783520
 O         -5.2721649596       -1.1195408510        1.1059408721
 O         -3.6292502291       -2.7237184604        1.9515198023
 C         -3.1767073397       -1.6246655011       -0.4327979181
 C         -3.8900183600       -1.1811808115       -1.5268428881
 C         -3.2939929202       -1.2288560318       -2.7766518582
 C         -2.0030680401       -1.7140332816       -2.9089592183
 C         -1.3005990099       -2.1588527011       -1.8002370982
 C         -1.8892621697       -2.1100742209       -0.5482941781
 H         -1.3694904695       -2.4472445805        0.3354796919
 H         -0.2907844998       -2.5215758410       -1.9060313983
 H         -1.5333529103       -1.7392764718       -3.8791721983
 H         -3.8346382204       -0.8806906122       -3.6420047982
 H         -4.8916562800       -0.8115707817       -1.3799322681
 H         -2.2512046994       -0.7209133800        2.4899294615
 H         -4.6327544901        1.1605597190        0.5267581813
 H         -3.9564736807        3.0753823886       -0.9022120694
 H         -1.5982502408        3.7322017590       -1.0561059000
 H          0.8698060197        2.9671308802        1.1887235298
 C          0.9148731792        3.5267546095       -0.8755704504
 C          0.8259022790        5.0020994296       -0.6273111108
 C          2.1656040591        4.3406972298       -0.7405901808
 H          2.7604866089        4.5235107497       -1.6228828010
 H          2.7495430293        4.2063359202        0.1584040691
 H          0.5033038887        5.6428144893       -1.4340405109
 H          0.5028438291        5.3267107499        0.3502461992
 H          0.6634359491        3.1549930392       -1.8624851702
