  62
        -98.94563592
 C          1.4416167758        1.5713317762       -0.0999402350
 C          2.6740701361        1.0817026840        0.3981776238
 C          3.1835851776       -0.1449249070       -0.2234417613
 C          2.4704476580       -0.7453943908       -1.1923559352
 C          2.8347961641       -2.0206245752       -1.9023365374
 C          2.4303053208       -3.2836511542       -1.1287423806
 C          3.3078537922       -3.6109636996        0.0801366279
 H          3.0748363227       -4.6359895024        0.3757192206
 H          4.3586784530       -3.5851683226       -0.2119983823
 C          3.0812767670       -2.6917928637        1.2887169233
 H          2.1170903747       -2.1865132315        1.1863274541
 H          3.0189696706       -3.2969838686        2.1968599917
 C          4.1809286080       -1.6534903131        1.5156734443
 H          3.8874483706       -1.0271886336        2.3622100661
 H          5.1123388184       -2.1607695778        1.7792503432
 C          4.4508873271       -0.7343093835        0.3177219283
 H          4.9792447061       -1.2808748691       -0.4634267850
 H          5.0825484133        0.0905103535        0.6578657823
 H          1.3942981339       -3.1783740770       -0.7947890035
 H          2.4751778965       -4.1247826089       -1.8248796373
 H          3.9065694517       -2.0414089402       -2.1022887983
 H          2.3026401823       -2.0125131532       -2.8561563423
 O          1.3002158627       -0.2375755288       -1.6566943490
 C          0.7350144403        0.9041135510       -1.1017514663
 O         -0.3679080620        1.2069318268       -1.5931133023
 O          3.3132191166        1.6396268973        1.3313436061
 C          0.8115970610        2.7594665319        0.6051944560
 C         -0.6254155185        2.4322546996        0.9326058962
 C         -1.6913823006        3.2961514521        0.7206170142
 C         -2.9845247371        2.9016633982        1.0206942548
 C         -3.2458193142        1.6346700200        1.5079477801
 C         -2.1844702289        0.7640178373        1.7256954574
 C         -0.8900199176        1.1788336250        1.4721204485
 H         -0.0785756040        0.4888824382        1.6541049347
 N         -2.3881844325       -0.5526938250        2.1911348136
 S         -1.8608550978       -1.7959659985        1.1999505152
 O         -2.4318033652       -2.9911598717        1.7891791341
 O         -0.4253318104       -1.7764005154        1.0877196678
 C         -2.6233458280       -1.5176090479       -0.3886544434
 C         -3.9956812224       -1.3635949975       -0.4394619911
 C         -4.6021244373       -1.1446236211       -1.6645057621
 C         -3.8302681541       -1.0881037089       -2.8153944053
 C         -2.4574987771       -1.2593477160       -2.7497948906
 C         -1.8455987931       -1.4756015583       -1.5250949754
 H         -0.7786297962       -1.5971373571       -1.4364294593
 H         -1.8532086490       -1.2141076261       -3.6414732549
 H         -4.3015046218       -0.9121860013       -3.7696046017
 H         -5.6713363552       -1.0170387801       -1.7193060448
 H         -4.5714903925       -1.4306780425        0.4695711971
 H         -3.3360257167       -0.7389547366        2.4882920744
 H         -4.2573313832        1.3194453850        1.7147354099
 H         -3.8027656311        3.5844382916        0.8499472527
 H         -1.5158329442        4.2731856368        0.3015253042
 H          1.3667062058        2.8354128463        1.5562890030
 C          0.9878819428        4.0934673225       -0.1052043172
 C          2.0533555063        4.2847640881       -1.1418620740
 C          0.6104587585        4.2815756071       -1.5431482766
 H          0.1603067570        5.2185509847       -1.8368492822
 H          0.2244334076        3.4227344395       -2.0687462214
 H          2.5928853043        5.2200801749       -1.1544269996
 H          2.6584624405        3.4281421496       -1.4019755818
 H          0.8151048041        4.9354239175        0.5580806385
