  62
        -98.94066180
 C         -1.9620046173       -0.8505878293        0.7131538411
 C         -1.8599598477       -0.1824969242       -0.5329236087
 C         -2.0473759173        1.2735874972       -0.4936729151
 C         -2.2180496589        1.8990674887        0.6834768502
 C         -2.3781106638        3.3815436134        0.8873178649
 C         -3.8103900467        3.8936713934        0.6803239380
 C         -4.2868335136        3.9284968956       -0.7723735228
 H         -5.2122745965        4.5073038285       -0.7914759413
 H         -3.5550282488        4.4619592171       -1.3795841160
 C         -4.5561906027        2.5465142683       -1.3837313532
 H         -4.6443388130        1.8063497602       -0.5851310337
 H         -5.5111393585        2.5619670184       -1.9135152967
 C         -3.4938174068        2.0758806017       -2.3771778119
 H         -3.4845689927        2.7380870648       -3.2455942290
 H         -3.7641882563        1.0740223976       -2.7200776237
 C         -2.0745357963        2.0113123863       -1.7976843242
 H         -1.4355982167        1.4644496143       -2.4955405592
 H         -1.6695758497        3.0154686693       -1.6723685322
 H         -4.4896595945        3.2763335377        1.2727198334
 H         -3.8518958043        4.9099765905        1.0787752046
 H         -2.0834295539        3.5847254881        1.9194083482
 H         -1.6966984256        3.9140029353        0.2227153432
 O         -2.2430433583        1.2301902753        1.8685393146
 C         -2.1162198582       -0.1487513377        1.9098339365
 O         -2.1530110305       -0.6283864692        3.0628035444
 H          0.6281459454       -1.2275547745        1.0977285822
 C          0.6524516065       -1.9933296249        0.3339914845
 C         -0.5012039836       -2.7154954622        0.0527902549
 C         -0.4475139085       -3.6996538594       -0.9242318000
 C          0.7278655833       -3.9263949774       -1.6201408845
 C          1.8590563393       -3.1721945451       -1.3712909516
 C          1.8177046978       -2.1930797331       -0.3839731399
 N          2.9502480541       -1.4122667172       -0.0891265156
 S          2.7080438977        0.1821160894        0.4127163674
 O          2.4465100656        0.1838509993        1.8319361558
 O          1.7297054151        0.8411270998       -0.4223541707
 C          4.3322947335        0.8538746228        0.1068791224
 C          4.5742801975        1.5242122269       -1.0773265400
 C          5.8476211845        2.0138025727       -1.3228892253
 C          6.8527389583        1.8226912048       -0.3867235773
 C          6.5946499163        1.1486064354        0.7977369851
 C          5.3234575044        0.6574265486        1.0498156574
 H          5.0716784149        0.1357930233        1.9584339262
 H          7.3774721784        1.0047567440        1.5247454067
 H          7.8426348270        2.2045285258       -0.5801779004
 H          6.0496300883        2.5413129753       -2.2411269747
 H          3.7586133061        1.6557660256       -1.7703603672
 H          3.6607624390       -1.4689215908       -0.8063818028
 H          2.7646622378       -3.3317030750       -1.9366115851
 H          0.7555961197       -4.6880109377       -2.3847620047
 H         -1.3313801184       -4.2674821517       -1.1640724656
 C         -1.7425511941       -2.3506429997        0.8304080562
 H         -1.5285758140       -2.5205162614        1.8995497231
 C         -2.9557603487       -3.2021934888        0.4894080724
 C         -4.3433042333       -2.6467695999        0.6058500958
 C         -3.7771624184       -2.9715656403       -0.7420070996
 H         -4.1673096234       -3.8327242770       -1.2647067528
 H         -3.4837368142       -2.1608717284       -1.3891268681
 H         -5.1176574112       -3.2818518009        1.0094361320
 H         -4.4414678438       -1.6071255393        0.8841099588
 H         -2.8265433608       -4.2334471611        0.8036008091
 O         -1.6312661476       -0.7586145028       -1.6275990627
