  62
        -98.93656313
 C          1.8338398174        1.2305818457       -0.0447612502
 C          2.4908218790        0.5211329448        0.9848185193
 C          3.6608121902       -0.2869015928        0.5932269662
 C          4.0336151867       -0.3091174570       -0.6992701362
 C          5.1783119044       -1.0536693786       -1.3389526866
 C          6.5227502091       -1.0224821550       -0.5956910317
 C          6.9079598067       -2.3679025414        0.0219171165
 H          7.9934459697       -2.4008221883        0.1388785627
 H          6.6317788055       -3.1619230040       -0.6751354884
 C          6.2879690402       -2.6570619308        1.3879046182
 H          6.7579862727       -2.0199393224        2.1402311354
 H          6.5243444937       -3.6921719841        1.6456132256
 C          4.7724396756       -2.4649520762        1.4725414875
 H          4.4069017547       -3.0635576523        2.3098543922
 H          4.2883156842       -2.8472603535        0.5743428545
 C          4.3499351500       -1.0088034958        1.7192363741
 H          5.2141626323       -0.4195494364        2.0390453704
 H          3.6369829187       -0.9695129499        2.5488784646
 H          6.5070407977       -0.2455014911        0.1669984719
 H          7.2949220764       -0.7507445745       -1.3171641402
 H          4.8693929562       -2.0890897334       -1.5036721143
 H          5.2902973726       -0.6031889862       -2.3278282068
 O          3.3512299144        0.3707053811       -1.6649954907
 C          2.2407660000        1.1457115961       -1.3755272698
 O          1.7225543982        1.6932744935       -2.3658166550
 H         -0.2037664458       -0.4359440832        0.3042907413
 C         -0.8724304296        0.1851027691       -0.2789695077
 C         -0.5989966230        1.5428389679       -0.3990660059
 C         -1.4739730199        2.3306501712       -1.1343554196
 C         -2.5700585783        1.7626032641       -1.7619008397
 C         -2.8242846548        0.4078550969       -1.6614238965
 C         -1.9683300180       -0.3857886258       -0.9068775089
 N         -2.2250077011       -1.7602276346       -0.7803392361
 S         -3.8025988099       -2.2615829979       -0.5445698933
 O         -3.6961760730       -3.5194350156        0.1611585733
 O         -4.4924131060       -2.3084308239       -1.8098704426
 C         -4.5450286392       -1.0197062008        0.4999654779
 C         -5.6495425234       -0.3196810607        0.0592022100
 C         -6.1943767231        0.6574457374        0.8769591567
 C         -5.6256551020        0.9184005750        2.1136774997
 C         -4.5183838043        0.2033714256        2.5443857475
 C         -3.9708937792       -0.7759778247        1.7319641099
 H         -3.1127473909       -1.3513213207        2.0410756716
 H         -4.0770559683        0.4066596319        3.5069379708
 H         -6.0466549674        1.6827080211        2.7475374089
 H         -7.0565933711        1.2132128647        0.5456011140
 H         -6.0574803595       -0.5529023716       -0.9108203315
 H         -1.5826805351       -2.2484924005       -0.1747855716
 H         -3.6604840986       -0.0502990122       -2.1639739852
 H         -3.2337021090        2.3844296256       -2.3428061238
 H         -1.2924032146        3.3882766294       -1.2282599801
 C          0.6251252346        2.0817705569        0.2999847856
 H          0.4810560982        1.9565814634        1.3834295618
 C          0.9014925062        3.5416437168        0.0110236121
 C          0.2025232671        4.6108236149        0.7948452977
 C          1.6600876437        4.3476682501        1.0210936782
 H          2.3788547136        5.0717591421        0.6677949597
 H          1.9566894500        3.8490363465        1.9324198543
 H         -0.4924655874        4.2967708305        1.5585606262
 H         -0.0793704997        5.5210963966        0.2877324487
 H          1.1138298795        3.7259912643       -1.0359415893
 O          2.1100551456        0.5511585850        2.1876280401
