  62
        -98.93162968
 C          2.4830150905        0.8304007629       -0.0206026924
 C          2.8851582756       -0.3191792737        0.7051421018
 C          4.0047604088       -1.0994247156        0.1552357841
 C          4.5803464252       -0.6990706867       -0.9911570468
 C          5.7016829344       -1.3510798901       -1.7611396087
 C          6.8833105664       -1.9099391025       -0.9578354417
 C          7.2371975234       -1.1178978330        0.3092753020
 H          8.3048229971       -0.8905456936        0.2996820890
 H          6.7018172273       -0.1668877552        0.3175848055
 C          6.9319333230       -1.8855557836        1.5977124064
 H          7.5217962446       -1.4556879548        2.4109494908
 H          7.2542127274       -2.9216448882        1.4730190525
 C          5.4694949901       -1.8667175859        2.0408622445
 H          5.1994289573       -0.8647999214        2.3855458069
 H          5.3690537227       -2.5369634598        2.8980302208
 C          4.4473800185       -2.2810448410        0.9697347490
 H          4.8359068387       -3.0794345428        0.3422151717
 H          3.5526239254       -2.6447005433        1.4822124340
 H          7.7426103565       -1.9237856840       -1.6304950381
 H          6.6823970147       -2.9449803250       -0.6852231414
 H          6.0585807010       -0.5804968046       -2.4487992395
 H          5.2728407403       -2.1517609092       -2.3708604218
 O          4.1616620205        0.4103407532       -1.6601006737
 C          3.1103191827        1.1996147758       -1.2101682875
 O          2.8618138420        2.1662478157       -1.9524629625
 O          2.3241952745       -0.6811460010        1.7745939056
 C          1.3277376523        1.6261211468        0.5593757759
 C          0.0127619060        1.1310665090        0.0130160799
 C         -0.2075121441        1.0266138152       -1.3570096010
 C         -1.4226704368        0.5734681540       -1.8368249314
 C         -2.4364060362        0.2089166189       -0.9674415085
 C         -2.2268702377        0.3065068504        0.4012544085
 C         -1.0068550269        0.7691509920        0.8804971868
 H         -0.8423521664        0.8319318880        1.9478362486
 N         -3.2384280199       -0.0839809456        1.2900103565
 S         -4.8231882631        0.3799175138        1.0041150927
 O         -4.8863849024        1.6432918173        0.3074154540
 O         -5.4660691566        0.3262541818        2.2984453902
 C         -5.4720623952       -0.9218420838       -0.0222683618
 C         -6.1065051984       -0.6114970091       -1.2090570102
 C         -6.6150303944       -1.6406475327       -1.9862531436
 C         -6.4818903082       -2.9545046352       -1.5642667111
 C         -5.8439556355       -3.2492233212       -0.3684226923
 C         -5.3343461309       -2.2251442842        0.4135429280
 H         -4.8337385197       -2.4131586168        1.3487428596
 H         -5.7415828091       -4.2723004687       -0.0440577589
 H         -6.8772246019       -3.7537854096       -2.1710673406
 H         -7.1113046102       -1.4137363119       -2.9161659389
 H         -6.1818966357        0.4240953341       -1.5006753302
 H         -2.9938919308        0.0037700011        2.2652710101
 H         -3.3830692855       -0.1459749332       -1.3403624761
 H         -1.5822124590        0.4995788354       -2.9019560656
 H          0.5821309095        1.3082491948       -2.0374148955
 H          1.3429123146        1.3916598554        1.6359778553
 C          1.4998049657        3.1325957337        0.4266881090
 C          0.6638470103        3.9941978554       -0.4661657585
 C          0.4764878457        4.0570742840        1.0181948875
 H          0.8135869758        4.9337683105        1.5501814860
 H         -0.4204494457        3.6119252684        1.4235567860
 H          1.1537530967        4.8153003028       -0.9665890447
 H         -0.1085391890        3.5267442084       -1.0560518936
 H          2.5383145159        3.4289427373        0.5349335679
