  62
        -98.93336932
 C         -2.5555587621       -1.2263154079        0.1578238660
 C         -2.7997462205       -0.2058493097       -0.7881883240
 C         -4.1910964301        0.2792772234       -0.8962220967
 C         -5.1340681194       -0.2743882383       -0.1110688249
 C         -6.5945067002        0.0796867327       -0.0179920937
 C         -6.8390341289        1.3779442459        0.7681900485
 C         -5.8882328620        2.5232301328        0.4296116550
 H         -4.8598848219        2.1998790265        0.6023430074
 H         -6.0912230328        3.3403713863        1.1270606494
 C         -6.0146784052        3.0769336011       -0.9876627073
 H         -5.3437913401        3.9368317996       -1.0602282369
 H         -7.0342344711        3.4376063046       -1.1412734640
 C         -5.6669311038        2.1071822218       -2.1189370780
 H         -5.5663859171        2.6984214096       -3.0338688415
 H         -6.4760730492        1.4033667423       -2.2943887356
 C         -4.3486319538        1.3610679424       -1.9374869917
 H         -3.5498788018        2.0853037103       -1.7399426838
 H         -4.0804325182        0.8916690332       -2.8917534478
 H         -6.7244833568        1.1548641963        1.8318599880
 H         -7.8695056748        1.6949792696        0.5994142689
 H         -7.0281489694        0.1400864090       -1.0116305536
 H         -7.0833298998       -0.7425899398        0.5091770087
 O         -4.8492069788       -1.2623570405        0.7862434571
 C         -3.5715145541       -1.7583553853        0.9491342373
 O         -3.4664679553       -2.6529748664        1.8136784134
 H          1.3729134627       -1.2627218577       -0.6401695780
 C          1.0612680204       -0.5541703918        0.1115326064
 C         -0.1921295873       -0.6689387006        0.6912710935
 C         -0.5558442980        0.2513365439        1.6707779704
 C          0.3001406098        1.2722197477        2.0360825640
 C          1.5418918275        1.3970569833        1.4382785809
 C          1.9228413739        0.4752586044        0.4738980616
 N          3.1804586412        0.5963204964       -0.1425194271
 S          4.4963730023        0.9741002281        0.8472998766
 O          4.4469804322        0.1846923194        2.0575880431
 O          4.5383230953        2.4033897008        1.0300826247
 C          5.8562655370        0.4533331912       -0.1802864234
 C          6.3556221103        1.3289303270       -1.1256569086
 C          7.3954366928        0.9112614401       -1.9411271693
 C          7.9142035231       -0.3672954256       -1.7998095937
 C          7.4028804076       -1.2345681726       -0.8459459199
 C          6.3625646446       -0.8237500446       -0.0275643909
 H          5.9413211614       -1.4606520460        0.7338148480
 H          7.8101244302       -2.2268309176       -0.7366074264
 H          8.7240846577       -0.6893916437       -2.4351513281
 H          7.7976170976        1.5829116117       -2.6822864357
 H          5.9266686203        2.3150082175       -1.1937897831
 H          3.3865902027       -0.1846345238       -0.7503062776
 H          2.2205273230        2.1886433408        1.7130943063
 H         -0.0009933865        1.9805229492        2.7938873206
 H         -1.5254401271        0.1570100838        2.1418722048
 C         -1.1531980424       -1.7772595198        0.3331318122
 H         -1.2040809930       -2.4691527884        1.1872163655
 C         -0.7505618951       -2.5569738256       -0.9020463731
 C          0.1864605359       -3.7215341113       -0.7942343639
 C         -1.2679049801       -3.9526267518       -1.0717505103
 H         -1.5614877691       -4.2778899486       -2.0584861993
 H         -1.8863470734       -4.3495319868       -0.2796541302
 H          0.5601139437       -3.9742395677        0.1867169580
 H          0.8904309045       -3.8941739423       -1.5946254743
 H         -0.6971346228       -1.9319434983       -1.7862529225
 O         -1.8989585812        0.2895073895       -1.5154417897
