  62
        -98.93749135
 C         -1.5356022877       -1.4638977924        0.4976116596
 C         -1.6261043550       -0.1420286731        1.0015006095
 C         -2.8129501858        0.6336979735        0.6072938963
 C         -3.7284219964        0.0699962752       -0.1992740540
 C         -5.0337628165        0.6484855006       -0.6855820522
 C         -5.0259416159        2.1060323702       -1.1666770651
 C         -3.7167615793        2.5642993644       -1.8255024832
 H         -3.0766743167        1.7034612276       -2.0271066715
 H         -3.9472031646        3.0299303126       -2.7856361630
 C         -2.9509444948        3.5842874526       -0.9799999988
 H         -3.6633479666        4.3084696877       -0.5788165240
 H         -2.2611426982        4.1287776846       -1.6288426083
 C         -2.1268340241        3.0038143042        0.1688213642
 H         -1.2602860702        2.4671970409       -0.2273522341
 H         -1.7434297304        3.8391974363        0.7574826314
 C         -2.8749364308        2.0469271770        1.1108993459
 H         -2.3524391181        2.0474971256        2.0711042896
 H         -3.9004436442        2.3709556976        1.2714450821
 H         -5.2521303484        2.7666123072       -0.3308538975
 H         -5.8472259798        2.2076782749       -1.8781340161
 H         -5.3463078986       -0.0055077435       -1.5031690151
 H         -5.7721503261        0.5391284826        0.1140622322
 O         -3.5886197228       -1.1960788493       -0.6819857646
 C         -2.4908169352       -1.9851724461       -0.3735456648
 O         -2.5032624415       -3.1007872604       -0.9274870769
 H          1.3778377924       -0.3284978358        0.2440146623
 C          1.4349676922       -1.1309063428       -0.4767662013
 C          0.6357388906       -2.2548499719       -0.3064184842
 C          0.6996132866       -3.2715109385       -1.2513193498
 C          1.5466768897       -3.1571497865       -2.3395254261
 C          2.3561406388       -2.0461078485       -2.4949097356
 C          2.2994639563       -1.0237791629       -1.5542258231
 N          3.0993780193        0.1232942994       -1.6775668538
 S          3.8733251449        0.7154636188       -0.3117001024
 O          5.0109385399        1.4448653809       -0.8336512368
 O          4.1774250675       -0.3461528404        0.6196615643
 C          2.7399180418        1.8803325835        0.4099592371
 C          2.4005749083        1.7659862330        1.7424556556
 C          1.5639793719        2.7156701555        2.3054615331
 C          1.0884975560        3.7596526034        1.5293733753
 C          1.4335961307        3.8578983113        0.1897048056
 C          2.2692191643        2.9112577863       -0.3789970345
 H          2.5657449985        2.9562234295       -1.4139647672
 H          1.0525987765        4.6682172586       -0.4111307542
 H          0.4427699647        4.5011495102        1.9730676121
 H          1.2828340047        2.6313554709        3.3425468361
 H          2.7893891468        0.9351100155        2.3098187372
 H          3.7195449117        0.1188726118       -2.4748061402
 H          3.0251120841       -1.9663582522       -3.3387390205
 H          1.5844522566       -3.9494509233       -3.0720741171
 H          0.0693709167       -4.1390283152       -1.1445532656
 C         -0.3076981847       -2.2789157474        0.8708539453
 H          0.1711116629       -1.7230361301        1.6890075914
 C         -0.6398864971       -3.6707524983        1.3620565631
 C          0.4207703185       -4.4621398802        2.0654563602
 C         -0.7449549643       -3.9205416364        2.8354818993
 H         -1.4963078406       -4.6113256494        3.1876806382
 H         -0.5743236400       -3.0855551849        3.4992828117
 H          0.4730419579       -5.5258403350        1.8906553555
 H          1.3834122153       -3.9916187045        2.2016070405
 H         -1.3295226720       -4.2044466878        0.7207581706
 O         -0.7592278625        0.3642102371        1.7618330003
