  62
        -98.94458546
 C         -1.5823595590       -1.4666380007        0.1887798298
 C         -1.7816670288       -0.4044002711        1.1100659803
 C         -3.0302363989        0.3531714088        0.9748590610
 C         -3.8914546392        0.0415799491       -0.0111038388
 C         -5.2385025494        0.6700889090       -0.2473065681
 C         -5.1997054198        1.9861958894       -1.0355286376
 C         -4.6608050197        3.1897462091       -0.2617530673
 H         -4.8888063200        4.0796146493       -0.8516281768
 H         -5.1951548394        3.2809150687        0.6844067429
 C         -3.1490268896        3.1426423792       -0.0010144178
 H         -2.7068375798        4.1123723793       -0.2400581175
 H         -2.6959270097        2.4049289695       -0.6676407382
 C         -2.7657643891        2.8126973586        1.4415687820
 H         -3.1316562890        3.5991510683        2.1054327624
 H         -1.6755258491        2.7939456487        1.5188512116
 C         -3.2992563788        1.4649636383        1.9447191716
 H         -2.7862890884        1.2205959280        2.8784694513
 H         -4.3687648087        1.5371591181        2.1444303020
 H         -6.2232657199        2.2089923694       -1.3452741272
 H         -4.6046805400        1.8358829798       -1.9390626978
 H         -5.7345436991        0.8345752386        0.7100654121
 H         -5.8204255395       -0.0560102508       -0.8190736483
 O         -3.6350546894       -0.9378736205       -0.9147345193
 C         -2.4880334293       -1.7173013204       -0.8434791100
 O         -2.4179308595       -2.5722050000       -1.7468972304
 O         -0.9602256886       -0.1199273214        2.0235270802
 C         -0.3535650388       -2.3340974407        0.4049965491
 C          0.7934192409       -1.9491707201       -0.4978418911
 C          0.7245256704       -2.1025244396       -1.8788958112
 C          1.8033903301       -1.7607188191       -2.6733381014
 C          2.9596598403       -1.2442012692       -2.1136620915
 C          3.0348324207       -1.0790259298       -0.7366279515
 C          1.9584114210       -1.4439315202        0.0606649487
 H          2.0355930713       -1.3133001407        1.1296817787
 N          4.1877187808       -0.5464774999       -0.1306064116
 S          3.9924400510        0.7295649396        0.9410631690
 O          5.3068935410        1.3257639597        1.0391886688
 O          3.4187328314        0.2562209990        2.1730326389
 C          2.8870672106        1.8295740499        0.0776810098
 C          3.4465148202        2.6997519603       -0.8390745100
 C          2.6151950799        3.4931059405       -1.6114222094
 C          1.2397595899        3.3885115503       -1.4687999791
 C          0.6956011903        2.5100255399       -0.5458182992
 C          1.5207720507        1.7229529396        0.2427012402
 H          1.1102885110        1.0436455193        0.9737909400
 H         -0.3730563696        2.4222616897       -0.4333450189
 H          0.5864298797        3.9942011605       -2.0767797686
 H          3.0380133996        4.1818930809       -2.3248151593
 H          4.5208327702        2.7473669005       -0.9165071304
 H          4.9336010606       -0.3419619995       -0.7809590718
 H          3.7980314400       -0.9726985989       -2.7369971417
 H          1.7407021998       -1.8896633387       -3.7432251814
 H         -0.1839208097       -2.4831212295       -2.3196868911
 H         -0.0381393785       -2.1246324911        1.4369623790
 C         -0.6461619087       -3.8182379906        0.2909347585
 C          0.2856799016       -4.7916941208        0.9450547878
 C         -1.0870845882       -4.5742768112        1.5062558884
 H         -1.8246424181       -5.3539248712        1.3886675183
 H         -1.1777672080       -4.0247094916        2.4322506386
 H          0.4936182916       -5.7231376006        0.4414483274
 H          1.1262705518       -4.3897542009        1.4910797277
 H         -1.0865632889       -4.1005019803       -0.6560882114
