  62
        -98.93952915
 C         -2.1049838305       -0.3058921399       -1.0760002496
 C         -2.9381662622        0.8204388595       -0.8609075058
 C         -4.3360007155        0.5208161059       -0.5152353607
 C         -4.7533922703       -0.7538956503       -0.4267273857
 C         -6.1479143249       -1.2112679723       -0.0950547388
 C         -6.4436476261       -1.2685600765        1.4100422713
 C         -6.6034426794        0.0897638959        2.0942676904
 H         -7.3310379241        0.6881158510        1.5450179744
 H         -7.0192832864       -0.0988264381        3.0860772600
 C         -5.2959098887        0.8790321182        2.2492099111
 H         -5.2303327033        1.2787331755        3.2636757866
 H         -4.4459198038        0.2056251538        2.1156707751
 C         -5.1502344467        2.0579964432        1.2871325954
 H         -5.9209738862        2.8020198480        1.5000514619
 H         -4.1764280764        2.5228044613        1.4595964232
 C         -5.2364439622        1.6764019675       -0.1964097302
 H         -6.2659135422        1.4424206447       -0.4661719037
 H         -4.9032643975        2.5312128766       -0.7899083971
 H         -5.6469831506       -1.8326688440        1.9007556515
 H         -7.3735638909       -1.8275800326        1.5379207313
 H         -6.8737077104       -0.5619570650       -0.5854921904
 H         -6.2497276243       -2.2186678568       -0.5045351090
 O         -3.9255690535       -1.8090718548       -0.6541183805
 C         -2.5907390493       -1.6115381197       -0.9620970890
 O         -1.9438769341       -2.6670086764       -1.1229598720
 H          1.5470287361       -1.6736028791       -0.7779013957
 C          1.2995047173       -0.9490114687       -0.0169550804
 C          0.2114682529       -0.1048489279       -0.1819735425
 C         -0.0821281944        0.8140274670        0.8221928907
 C          0.6908285918        0.8743950534        1.9664151541
 C          1.7820344188        0.0366673795        2.1231735260
 C          2.0889152632       -0.8774664980        1.1235837974
 N          3.2021594794       -1.7353457847        1.2409663642
 S          4.4220118382       -1.5637680445        0.1057373856
 O          3.9084950616       -1.8508484670       -1.2078853282
 O          5.5027807193       -2.3985096099        0.5784466208
 C          4.8839421277        0.1553100509        0.2276011432
 C          5.9124871028        0.5155019658        1.0763041312
 C          6.2176543384        1.8587058273        1.2267717988
 C          5.4850605634        2.8143504799        0.5387030667
 C          4.4533518909        2.4368446969       -0.3071563189
 C          4.1471369931        1.0946253352       -0.4657173408
 H          3.3555458338        0.7644487281       -1.1177625182
 H          3.8825151706        3.1779375338       -0.8435158406
 H          5.7197066359        3.8600189488        0.6601302932
 H          7.0214857163        2.1558695457        1.8808857942
 H          6.4579558455       -0.2610627932        1.5878869912
 H          3.6078985732       -1.7458536301        2.1667341810
 H          2.3887893576        0.0859257113        3.0149027249
 H          0.4481681941        1.5870780641        2.7398256527
 H         -0.9180543414        1.4832093911        0.6887628680
 C         -0.6313017082       -0.1930733031       -1.4295363996
 H         -0.3804901222       -1.1439925006       -1.9260258315
 C         -0.3380956504        0.9306509957       -2.4173458460
 C          0.5849147055        2.0683321560       -2.1090649614
 C          1.0113429874        1.0010890667       -3.0690718112
 H          1.0664488605        1.2386877511       -4.1208254815
 H          1.7541140302        0.2847321385       -2.7462944095
 H          0.3249763566        3.0402147169       -2.4996677612
 H          1.0485160005        2.0993528101       -1.1353516518
 H         -1.1918411129        1.1595371246       -3.0451079099
 O         -2.5593107422        2.0158795957       -0.9464142153
