  62
        -98.94514708
 C         -1.8676992708       -1.2088972097       -0.2552461805
 C         -2.8895457803       -0.4663875598        0.3752891604
 C         -3.1502631499        0.8789510508       -0.1637865584
 C         -2.4184967301        1.3188102613       -1.2025830483
 C         -2.4632714798        2.6778919218       -1.8440390772
 C         -1.4099703092        3.6007533509       -1.2058175069
 C         -1.8995603485        4.3790255801        0.0136433439
 H         -1.0363730681        4.9048195895        0.4286371940
 H         -2.6279017983        5.1302977807       -0.3009839953
 C         -2.5187873584        3.5155585995        1.1155184734
 H         -1.9107285887        2.6176125392        1.2474620825
 H         -2.4675349479        4.0764145588        2.0513285038
 C         -3.9827565287        3.1402229603        0.8394408636
 H         -4.3584952487        3.7588947311        0.0243247342
 H         -4.5870574083        3.3824590099        1.7162838340
 C         -4.2386013094        1.6590907007        0.5221424726
 H         -4.4211409193        1.1153655700        1.4545999422
 H         -5.1548266896        1.5762031715       -0.0724938372
 H         -0.5527546193        2.9871084903       -0.9143307977
 H         -1.0661726591        4.3179980413       -1.9543445364
 H         -2.2117049802        2.5355369225       -2.8971163674
 H         -3.4583978196        3.1077041821       -1.7749748166
 O         -1.4582556506        0.5614147014       -1.7967801292
 C         -1.1318157809       -0.6924994991       -1.3201417903
 O         -0.1923560613       -1.2467093390       -1.9250064511
 O         -3.5466146201       -0.9036327003        1.3611940703
 C         -1.4721112811       -2.5641989503        0.3028378483
 C         -0.0117890510       -2.5330143411        0.6837116379
 C          0.8769458285       -3.5684548913        0.4240196368
 C          2.2155292987       -3.4445337021        0.7567486464
 C          2.7008200793       -2.2810802727        1.3256329771
 C          1.8158528398       -1.2454988726        1.6017547783
 C          0.4699315697       -1.3934806018        1.3154665286
 H         -0.2037364999       -0.5804623717        1.5436248494
 N          2.2491824605       -0.0181344332        2.1482675091
 S          2.0833697707        1.3280704677        1.1580584202
 O          2.6146021514        2.4314437469        1.9299094108
 O          0.7194674506        1.4547795986        0.7186638907
 C          3.1752531901        0.9903584983       -0.2114704505
 C          4.4534710603        1.5153211978       -0.1762010005
 C          5.3382990599        1.2001959882       -1.1939761410
 C          4.9346877492        0.3589813992       -2.2204012815
 C          3.6504848790       -0.1621922303       -2.2382363115
 C          2.7565911295        0.1520040193       -1.2250541410
 H          1.7508923393       -0.2402548503       -1.2271236809
 H          3.3276691985       -0.8162966396       -3.0323031019
 H          5.6231234588        0.1085237495       -3.0120473920
 H          6.3363846300        1.6076301878       -1.1827221310
 H          4.7191182209        2.1668850770        0.6407474799
 H          3.1944973506       -0.0441268438        2.5067455087
 H          3.7508536495       -2.1709348833        1.5515076469
 H          2.8944260683       -4.2567731522        0.5465347155
 H          0.5234195680       -4.4699760108       -0.0492246538
 H         -2.0717886609       -2.6961151407        1.2159534084
 C         -1.8159363619       -3.6694033694       -0.6737548524
 C         -2.1700746822       -5.0383772496       -0.1763152834
 C         -3.2324794321       -4.1516159287       -0.7504907723
 H         -3.6430048625       -4.3941173978       -1.7191142024
 H         -3.9448859317       -3.6994104490       -0.0759565617
 H         -1.8540639828       -5.8944434193       -0.7531745241
 H         -2.1687297620       -5.1987066304        0.8912361465
 H         -1.2641347322       -3.5863713889       -1.6034679625
