  62
        -98.94516211
 C          2.2619915700       -0.7568554279        0.0175223895
 C          3.2541016307       -0.6610047800       -0.9911094267
 C          4.1146144099        0.5273722488       -0.9426259887
 C          3.8951259320        1.4580786492        0.0039166490
 C          4.7197849896        2.6972423232        0.1952095211
 C          5.8726855317        2.4523882198        1.1788746714
 C          6.6889763740        1.1963767357        0.8737030169
 H          7.4915237785        1.1432692018        1.6125000801
 H          6.0577062018        0.3171237201        1.0210475087
 C          7.2901581087        1.1572672483       -0.5381815954
 H          8.3283401615        0.8262260698       -0.4672925072
 H          7.2986818552        2.1607532595       -0.9650653960
 C          6.5831566082        0.2025620874       -1.5020113780
 H          7.2119891219        0.0879967687       -2.3888226562
 H          6.4888265358       -0.7824643830       -1.0382031015
 C          5.1947203625        0.6448977277       -1.9811069486
 H          5.2464969031        1.6642148333       -2.3690014519
 H          4.8973784070       -0.0189580565       -2.7980448013
 H          6.5268191037        3.3261057123        1.1673220469
 H          5.4548868324        2.3540007577        2.1835447961
 H          4.0733337383        3.4813283497        0.5933143193
 H          5.1119397906        3.0179937751       -0.7679730564
 O          2.9126975070        1.3498937458        0.9336800050
 C          2.0772366965        0.2424846598        0.9729914382
 O          1.2384832485        0.2765971591        1.8947135689
 O          3.4117298892       -1.5308553987       -1.8884707664
 C          1.3465599361       -1.9708978597        0.0015065950
 C         -0.0324153584       -1.5093295592       -0.3991238025
 C         -0.3188007297       -1.3168914468       -1.7481408315
 C         -1.5476828902       -0.8254300045       -2.1453707983
 C         -2.5135925201       -0.5048375348       -1.2067124284
 C         -2.2305089785       -0.6755169753        0.1410516452
 C         -1.0040519271       -1.1933443850        0.5370885245
 H         -0.7943635247       -1.3087313153        1.5885865751
 N         -3.1978724541       -0.3385735642        1.1036067852
 S         -3.9853492255        1.1360505453        0.9539033998
 O         -3.1717735898        2.1191901435        0.2763966854
 O         -4.4196754845        1.4708436179        2.2929446751
 C         -5.4181781301        0.7447285519       -0.0309827895
 C         -6.2184976981       -0.3069657016        0.3708858932
 C         -7.3432270416       -0.6158954728       -0.3771164664
 C         -7.6496318217        0.1295539015       -1.5059637152
 C         -6.8385147125        1.1846367885       -1.8942394209
 C         -5.7110290092        1.4980937219       -1.1508168518
 H         -5.0474815327        2.3052835874       -1.4179970623
 H         -7.0780307082        1.7637177938       -2.7715932330
 H         -8.5256259526       -0.1131114826       -2.0865071351
 H         -7.9761501640       -1.4359049757       -0.0784978224
 H         -5.9467583344       -0.8592214928        1.2547720381
 H         -2.8781406346       -0.4720743284        2.0525909973
 H         -3.4692256855       -0.1077699828       -1.5078225885
 H         -1.7566546599       -0.6855517240       -3.1950974018
 H          0.4438070697       -1.5440946636       -2.4799742986
 H          1.7359701243       -2.6155316240       -0.7978479575
 C          1.3854071627       -2.7369653043        1.3067689473
 C          0.8296968927       -4.1279727177        1.3550076683
 C          2.3094714089       -3.9087400429        1.4399237775
 H          2.8025462906       -4.0695979959        2.3869979988
 H          2.9151780507       -4.1670116966        0.5837420961
 H          0.3047754570       -4.4436212689        2.2435778292
 H          0.4291099659       -4.5339989879        0.4386447684
 H          1.2592130172       -2.1081912904        2.1797803761
