  62
        -98.94487678
 C          1.8337786886        0.7501469345       -0.1740348765
 C          2.3708678056        0.0805986698        0.9507992184
 C          3.4272597237       -0.9010209331        0.6721653941
 C          3.7898677512       -1.1313960071       -0.6032632413
 C          4.8852431102       -2.0659815517       -1.0261996310
 C          6.2322947148       -1.3359166779       -1.1223863817
 C          6.5675383521       -0.4926811737        0.1078707355
 H          7.5514689216       -0.0496089374       -0.0600981742
 H          5.8527847825        0.3301001449        0.1812937681
 C          6.5772600780       -1.2739056978        1.4292841381
 H          6.6545506221       -2.3429170395        1.2273512957
 H          7.4633996366       -0.9871920714        1.9994145744
 C          5.3665792751       -1.0144240898        2.3275422797
 H          5.5767635496       -1.4388665284        3.3128966163
 H          5.2310626617        0.0622412805        2.4571771478
 C          4.0389611384       -1.6129482239        1.8461044602
 H          4.1719865935       -2.6745744113        1.6270731374
 H          3.3170459384       -1.5188441862        2.6628747552
 H          6.2067924437       -0.6766274504       -1.9930853069
 H          7.0161283948       -2.0786447271       -1.2817400495
 H          4.9541417652       -2.8846528661       -0.3122592134
 H          4.6308639231       -2.4719972058       -2.0068007229
 O          3.2216879433       -0.4993988586       -1.6616012401
 C          2.2333759281        0.4580216004       -1.4784518399
 O          1.8006554621        0.9579371168       -2.5330354475
 H         -0.3449430260       -0.6316626270        0.1423104635
 C         -0.9536778844        0.0407043252       -0.4497524775
 C         -0.5343821005        1.3542501733       -0.6254681243
 C         -1.3351716958        2.2078818065       -1.3722810906
 C         -2.5063864421        1.7465650836       -1.9496195406
 C         -2.9082286132        0.4338675405       -1.7902254662
 C         -2.1222203822       -0.4247250403       -1.0312681232
 N         -2.5300106872       -1.7580423079       -0.8474269523
 S         -4.1208808711       -2.0193643590       -0.3950324385
 O         -4.1112297319       -3.2750983279        0.3220824057
 O         -4.9704008071       -1.9660320996       -1.5584284523
 C         -4.5121454512       -0.6691845406        0.7032571425
 C         -3.7959034523       -0.5642072576        1.8793026497
 C         -4.0483293684        0.5031746375        2.7251509844
 C         -5.0069600081        1.4441220028        2.3807728535
 C         -5.7210132237        1.3219176461        1.1991352896
 C         -5.4714569447        0.2568275730        0.3483247732
 H         -6.0012293577        0.1247832216       -0.5808020615
 H         -6.4667923654        2.0543247959        0.9356885103
 H         -5.1974332159        2.2766483568        3.0394669376
 H         -3.4928132423        0.5989623073        3.6444194813
 H         -3.0598198700       -1.3148974013        2.1199990697
 H         -1.8974578826       -2.3031226181       -0.2805522424
 H         -3.8093806874        0.0559153808       -2.2450687171
 H         -3.1130280376        2.4192761429       -2.5361185548
 H         -1.0388573737        3.2343252994       -1.5108293158
 C          0.7484747717        1.7889002293        0.0404836157
 H          0.5747131432        1.8063242844        1.1271344561
 C          1.2268683300        3.1572522429       -0.3971793694
 C          0.7034561936        4.3918341356        0.2722636029
 C          2.1102946650        3.9423036275        0.5242162153
 H          2.9216672252        4.5135735994        0.0986297846
 H          2.3439946993        3.5012713063        1.4824280807
 H          0.5501927164        5.2770976964       -0.3262339964
 H         -0.0177810341        4.2633255063        1.0649049039
 H          1.4466742556        3.2008222872       -1.4579533563
 O          1.9776936325        0.2875638749        2.1312405262
