  62
        -98.93965065
 C         -1.0173964179       -1.4212532912        0.4732621469
 C         -1.9547238669       -1.1398583253       -0.5460120853
 C         -3.0280431859       -0.1841640243       -0.2097517331
 C         -3.0568403238        0.3647580958        1.0178130065
 C         -4.0187752698        1.3797345494        1.5832042120
 C         -5.5075235807        1.2000372570        1.2509879931
 C         -6.0429495532        2.2413816425        0.2663896396
 H         -5.5928267803        3.2073966608        0.5050135265
 H         -7.1210222435        2.3387622474        0.4127550807
 C         -5.8042600048        1.9260041660       -1.2090732517
 H         -6.1036023201        2.8033293996       -1.7872429540
 H         -6.4514769638        1.1000689591       -1.5118565133
 C         -4.3629200447        1.5668951830       -1.5752957746
 H         -3.6598739893        2.2147607397       -1.0509396191
 H         -4.2307353141        1.7567334248       -2.6428086812
 C         -4.0118668866        0.0943080795       -1.3127469486
 H         -3.5519770311       -0.3383725419       -2.2068067359
 H         -4.9241690965       -0.4808885977       -1.1316331774
 H         -6.0674683697        1.3012157050        2.1821473615
 H         -5.6852729200        0.1939870702        0.8750651988
 H         -3.8730345005        1.3328246882        2.6652025656
 H         -3.6834120819        2.3727753685        1.2706528614
 O         -2.1209111576        0.0732733370        1.9664620972
 C         -1.0732869973       -0.7921308900        1.7147449278
 O         -0.2692949446       -0.9196747010        2.6618052645
 H          0.6546856775        0.2339895554       -0.2571265726
 C          1.2040805585       -0.3972215726       -0.9377014591
 C          1.0390680202       -1.7735766290       -0.8805566163
 C          1.7328328766       -2.5599712341       -1.7924507856
 C          2.5563645114       -1.9720659862       -2.7371764757
 C          2.7244322600       -0.5996473585       -2.7827228061
 C          2.0370597870        0.1949779142       -1.8725029925
 N          2.1663622638        1.5915536025       -1.8780574070
 S          2.1142805673        2.4437600405       -0.4415425587
 O          0.7673275507        2.4971059323        0.0708216146
 O          2.7126075919        3.7206034775       -0.7698775794
 C          3.1932660193        1.5451560725        0.6587351767
 C          4.5497053065        1.6107392675        0.3996270275
 C          5.4237227040        0.8904700688        1.1958626756
 C          4.9291569538        0.1120837066        2.2320732352
 C          3.5674261251        0.0605425002        2.4825248816
 C          2.6872845926        0.7833698314        1.6913494218
 H          1.6242479888        0.7516920450        1.8737714164
 H          3.1703858162       -0.5408107054        3.2850263939
 H          5.6071972666       -0.4548260955        2.8502612468
 H          6.4839971532        0.9348589179        1.0063661699
 H          4.8946681533        2.2367487805       -0.4071890462
 H          2.8598556000        1.9580169941       -2.5128596840
 H          3.3693867011       -0.1454608301       -3.5189130447
 H          3.0821947240       -2.5935228918       -3.4458446144
 H          1.6223104409       -3.6317093487       -1.7679800496
 C          0.1523688788       -2.3471326624        0.2006111771
 H          0.7406833817       -2.3706693449        1.1309719715
 C         -0.3315220229       -3.7502291253       -0.1042482868
 C          0.4804853675       -4.9395906659        0.3100207649
 C         -0.7937708248       -4.6157020052        1.0283283837
 H         -1.6528755766       -5.2511941051        0.8747159593
 H         -0.7306330610       -4.2019032817        2.0246112914
 H          1.4104285730       -4.7568243215        0.8269920146
 H          0.4949529560       -5.8040018931       -0.3366543562
 H         -0.8861726454       -3.8042185871       -1.0335768378
 O         -1.8981089323       -1.6538696655       -1.6945015655
