  62
        -98.94397144
 C          1.7336145000        1.4531407910        0.4955901736
 C          2.5638376871        0.9466351348       -0.5347339539
 C          3.4269576403       -0.1862011589       -0.1610583916
 C          3.3411002133       -0.7092374071        1.0748773669
 C          4.1355728917       -1.8825053089        1.5702576992
 C          3.4032812382       -3.2082241291        1.3214512683
 C          2.8794374254       -3.3639986698       -0.1058083486
 H          2.4033832500       -4.3448282962       -0.1698186863
 H          2.1089643892       -2.6116192741       -0.2860203657
 C          3.9544767016       -3.2440858560       -1.1944598641
 H          4.9445789354       -3.3783120596       -0.7572520468
 H          3.8106978980       -4.0464464854       -1.9210085353
 C          3.9171013955       -1.9262988108       -1.9703427004
 H          2.9023654610       -1.7393889762       -2.3300624352
 H          4.5617588297       -2.0294070636       -2.8472261845
 C          4.3907613132       -0.6870823785       -1.2004986124
 H          4.5014416781        0.1274487888       -1.9221195572
 H          5.3675874537       -0.8834622025       -0.7533143774
 H          2.5564196290       -3.2711446589        2.0091051167
 H          4.0862752622       -4.0274434563        1.5534440613
 H          5.1028096476       -1.8923661525        1.0711858090
 H          4.2937324409       -1.7604078844        2.6432866525
 O          2.4758367374       -0.2447674689        2.0131275233
 C          1.6621982506        0.8422795841        1.7506947895
 O          0.9244269422        1.1694326249        2.7033442225
 O          2.6089517835        1.4063944532       -1.7043618698
 C          0.8145958539        2.6511012154        0.2974580925
 C         -0.4555044025        2.1638268205       -0.3561086374
 C         -0.5676610307        1.9713664859       -1.7282263677
 C         -1.7353729494        1.4613498910       -2.2684192424
 C         -2.8065581963        1.1268471372       -1.4583404307
 C         -2.6961067492        1.3015282467       -0.0849941843
 C         -1.5292658979        1.8215743241        0.4550150373
 H         -1.4373875813        1.9388326900        1.5267706587
 N         -3.7654912608        0.9312108438        0.7518780985
 S         -4.4233140153       -0.5864291124        0.4962175533
 O         -5.3965601412       -0.5152783629       -0.5650109905
 O         -4.9287334631       -1.0094779636        1.7832251012
 C         -3.0567116881       -1.6157159507       -0.0137775349
 C         -1.9561935090       -1.7044442931        0.8156583528
 C         -0.8804733313       -2.4818241239        0.4201230310
 C         -0.9224612018       -3.1557253155       -0.7908465664
 C         -2.0361134516       -3.0597203023       -1.6102965725
 C         -3.1138811096       -2.2805392558       -1.2215791227
 H         -3.9965472248       -2.1722855123       -1.8306284519
 H         -2.0649887695       -3.5854921741       -2.5509347047
 H         -0.0808120594       -3.7575661375       -1.0954049055
 H         -0.0126186242       -2.5492075660        1.0577751917
 H         -1.9426337606       -1.1712257701        1.7534770241
 H         -3.5785834504        1.0797829435        1.7331911598
 H         -3.7221446747        0.7287002568       -1.8651585725
 H         -1.8121037076        1.3180196056       -3.3353531134
 H          0.2737442090        2.1968525821       -2.3634856681
 H          0.5548493484        2.9941524583        1.3082005967
 C          1.4643956249        3.8015012884       -0.4410691017
 C          0.8247575359        5.1543600536       -0.3699371218
 C          2.1165774160        4.8972951127        0.3448283187
 H          3.0203034298        5.3418029241       -0.0442116613
 H          2.0975035208        4.8232194993        1.4227586194
 H          0.8387361243        5.7781877143       -1.2502917426
 H         -0.0719876807        5.2527595817        0.2235727804
 H          1.9374503107        3.5149997439       -1.3699893742
