  62
        -98.93786121
 C         -2.5871944851       -1.1434245823        0.5064819904
 C         -3.4427698352       -0.8485609341       -0.5841414603
 C         -4.5911596064        0.0214569677       -0.2776934407
 C         -4.7675906738        0.4770549379        0.9748242173
 C         -5.8575248701        1.4151285044        1.4039343655
 C         -5.4062413223        2.8783576598        1.2948403069
 C         -4.7671917166        3.2292046697       -0.0488356262
 H         -4.5176434003        4.2921357455       -0.0221083148
 H         -3.8274117314        2.6814159990       -0.1505076941
 C         -5.6550150057        2.9429304757       -1.2679678535
 H         -5.6051573306        3.7978263528       -1.9456450943
 H         -6.6942219805        2.8395287805       -0.9536002070
 C         -5.2450166298        1.7101852935       -2.0757305910
 H         -4.1798562780        1.7661464553       -2.3136163006
 H         -5.7928371144        1.7261768774       -3.0217164341
 C         -5.5197823891        0.3550868221       -1.4115952291
 H         -6.5602251764        0.3097579914       -1.0836268280
 H         -5.3623643837       -0.4215113411       -2.1658507445
 H         -6.2723403103        3.5200204276        1.4669387577
 H         -4.6754918545        3.0747393136        2.0828481700
 H         -6.7376610958        1.2482109811        0.7860070925
 H         -6.1082055850        1.1978719887        2.4436441044
 O         -3.9298360768        0.1665931272        1.9975061495
 C         -2.8235615899       -0.6364533663        1.7872871040
 O         -2.1355901044       -0.8363482683        2.8095670981
 H          1.0199782711       -1.8032159643        1.6404256525
 C          0.9920159241       -1.2090214860        0.7364757191
 C         -0.1604018862       -1.1988015363       -0.0350524321
 C         -0.1865801047       -0.4153403005       -1.1850157840
 C          0.9186585182        0.3324947596       -1.5473515323
 C          2.0658411556        0.3215274037       -0.7726327472
 C          2.1017465452       -0.4535785055        0.3781189916
 N          3.2571730289       -0.4545617728        1.1768322464
 S          4.7396200911       -0.7387567506        0.4405838623
 O          4.5881603126       -1.5472675247       -0.7465492553
 O          5.5811873017       -1.2786968644        1.4856403771
 C          5.3237849784        0.8856260098        0.0060590854
 C          5.4643847364        1.8182944072        1.0149499676
 C          5.9246877227        3.0854675674        0.6950083368
 C          6.2376102471        3.3958592617       -0.6201973055
 C          6.0949931718        2.4469858533       -1.6209522734
 C          5.6341545647        1.1776121923       -1.3076191539
 H          5.5041875999        0.4092498854       -2.0531748680
 H          6.3400084647        2.6899386178       -2.6424503634
 H          6.5955366248        4.3831107459       -0.8663600284
 H          6.0376400719        3.8258619474        1.4705325889
 H          5.2150082952        1.5360561428        2.0242883792
 H          3.1670802596       -0.9937513077        2.0257756716
 H          2.9277280425        0.9057603827       -1.0506648565
 H          0.8864277105        0.9342185429       -2.4430671951
 H         -1.0801898405       -0.4061534716       -1.7905069633
 C         -1.3528621980       -2.0219502226        0.3794978631
 H         -1.1604924520       -2.3893227730        1.4001603550
 C         -1.5772078485       -3.2449367469       -0.5002560957
 C         -0.8909204595       -3.4731668496       -1.8100318967
 C         -0.5021402832       -4.2856813847       -0.6140665244
 H         -0.7810162003       -5.3278765287       -0.5764694173
 H          0.4510288395       -4.0674922627       -0.1543959047
 H         -0.1951079892       -2.7292610268       -2.1643322953
 H         -1.4624034773       -3.9426465243       -2.5960165165
 H         -2.5960081921       -3.6112267443       -0.4267886152
 O         -3.2768005096       -1.2761847785       -1.7543709602
