  62
        -98.93692708
 C         -1.9686835108       -0.9857482020        0.4156980677
 C         -2.5920564248        0.0595762220        1.1430766221
 C         -4.0283288188        0.2793392350        0.9028384944
 C         -4.6693622562       -0.5169476147        0.0302362442
 C         -6.1087058587       -0.4413526134       -0.3984844147
 C         -6.2533542360        0.4080474855       -1.6725678640
 C         -6.4229116399        1.9073655819       -1.4309707726
 H         -6.3849824103        2.4001991726       -2.4051605514
 H         -7.4124833147        2.0931815360       -1.0082148313
 C         -5.3736416122        2.5456566127       -0.5169144349
 H         -5.3660554028        3.6195056022       -0.7140834299
 H         -4.3824037135        2.1648931781       -0.7706478147
 C         -5.6541803473        2.3173133424        0.9758890279
 H         -5.6243242335        3.2749301967        1.5000349287
 H         -6.6668791436        1.9322521511        1.0939741968
 C         -4.6624460253        1.3907164897        1.6941279592
 H         -3.8191212127        1.9802836506        2.0678569850
 H         -5.1516684542        0.9576460521        2.5733765955
 H         -7.1224644776        0.0557803602       -2.2317623741
 H         -5.3714660614        0.2328478240       -2.2940185715
 H         -6.4188506440       -1.4635278096       -0.6250528177
 H         -6.7305743339       -0.0563629501        0.4041558226
 O         -4.0370034138       -1.5132545755       -0.6441176907
 C         -2.6860724460       -1.7742922804       -0.4842846246
 O         -2.2774633766       -2.7165665728       -1.1893939694
 H          1.2256736434        0.8632701451        0.9393591699
 C          1.1966282121        0.4865417820       -0.0722303097
 C          0.3630752390       -0.5742118124       -0.3973163436
 C          0.3335869601       -1.0231959981       -1.7144432793
 C          1.1190660474       -0.4178605730       -2.6776049771
 C          1.9611679100        0.6297147523       -2.3463653557
 C          1.9987803663        1.0858616877       -1.0348336834
 N          2.8437386588        2.1501771210       -0.6667212148
 S          3.9324884296        1.9190696320        0.5837370832
 O          3.2285829668        1.7355011625        1.8261425127
 O          4.8275030537        3.0518512514        0.5095269800
 C          4.8021270275        0.4271259097        0.1365441052
 C          4.2496434839       -0.7957457523        0.4613298854
 C          4.8891446663       -1.9514701772        0.0420607144
 C          6.0639520391       -1.8654060535       -0.6890226673
 C          6.6085821468       -0.6295063419       -1.0038815127
 C          5.9701203621        0.5296795170       -0.5937800420
 H          6.3598029681        1.5108801610       -0.8119871418
 H          7.5244106433       -0.5662711546       -1.5691918024
 H          6.5580092749       -2.7677098911       -1.0131825886
 H          4.4632786553       -2.9112660906        0.2866535612
 H          3.3365645827       -0.8255451183        1.0326299488
 H          3.3135772181        2.5849451224       -1.4485952429
 H          2.5777745020        1.0978453942       -3.0988157830
 H          1.0813757613       -0.7708571681       -3.6969756036
 H         -0.3256643723       -1.8358704916       -1.9772156548
 C         -0.4881847321       -1.2109518388        0.6755398706
 H         -0.2827739045       -0.6820106432        1.6165919653
 C         -0.1271588751       -2.6716828368        0.8612023507
 C          1.0633078913       -3.0265355408        1.6984490668
 C         -0.3197105175       -3.3051793191        2.2047015114
 H         -0.6615422054       -4.3282926405        2.2470030478
 H         -0.7068151854       -2.6832012201        2.9991119152
 H          1.6113848854       -2.2184881799        2.1605306594
 H          1.6761394187       -3.8614284534        1.3959770101
 H         -0.3354177643       -3.2829021129       -0.0067413546
 O         -1.9706919756        0.7830617208        1.9690985892
