  62
        -98.93925447
 C          2.5535137643        0.9462377036       -0.3412608625
 C          2.5182669406       -0.4332653383       -0.0234686997
 C          3.7273840796       -0.9689956837        0.6158081792
 C          4.7600623985       -0.1521053762        0.8905574956
 C          6.0480261780       -0.5463417677        1.5612661228
 C          7.0912069718       -1.1450669096        0.6076806232
 C          6.7858610409       -2.5599520224        0.1143121322
 H          7.6938340685       -2.9358385113       -0.3614887472
 H          6.5759230850       -3.2037921506        0.9689696897
 C          5.6301932325       -2.6440504826       -0.8925230384
 H          5.9224540778       -3.2822043213       -1.7295033256
 H          5.4306748315       -1.6509812686       -1.3016470104
 C          4.3315919025       -3.2130094959       -0.3208267585
 H          3.5728595860       -3.1920395383       -1.1070934119
 H          4.4849572292       -4.2541014258       -0.0282640676
 C          3.7826196501       -2.4422669058        0.8869683268
 H          2.7615082319       -2.7820253740        1.0769311465
 H          4.3884554526       -2.6446513836        1.7699092628
 H          8.0444767930       -1.1670665214        1.1408352394
 H          7.2051989740       -0.4767346342       -0.2489344577
 H          6.4627805834        0.3652302215        1.9969265650
 H          5.8405168187       -1.2522908642        2.3659858699
 O          4.7405513948        1.1760138419        0.5980365017
 C          3.6490531884        1.7526549626       -0.0293649361
 O          3.7712389161        2.9749269814       -0.2502718714
 H         -0.9842477918        0.1603611572       -1.1232564901
 C         -0.9177658321        0.7817101557       -0.2442422023
 C          0.1970967308        1.5788084917       -0.0460954520
 C          0.2608337708        2.3630838926        1.1030459033
 C         -0.7638816507        2.3428607006        2.0292150504
 C         -1.8696033910        1.5323788052        1.8365570330
 C         -1.9413556801        0.7444508406        0.6964414797
 N         -3.0426581365       -0.1095682785        0.5046257422
 S         -4.5851082475        0.5004526850        0.8139799074
 O         -4.7633884727        1.7698129371        0.1433335097
 O         -4.8014574482        0.5083244566        2.2390550630
 C         -5.5948574424       -0.7558845392        0.0553272594
 C         -6.0885472828       -0.5540276557       -1.2194172047
 C         -6.8475533692       -1.5524127332       -1.8096852718
 C         -7.0950809784       -2.7299441510       -1.1203477939
 C         -6.5923066544       -2.9177535523        0.1587385334
 C         -5.8337633411       -1.9233193035        0.7552258535
 H         -5.4291714169       -2.0217717319        1.7489907446
 H         -6.7887789416       -3.8339553559        0.6918669100
 H         -7.6857202472       -3.5054267157       -1.5819748583
 H         -7.2419644498       -1.4086351289       -2.8027220579
 H         -5.8776860073        0.3802475035       -1.7147714877
 H         -3.0100827637       -0.5697926532       -0.3949640805
 H         -2.6755185813        1.5052317833        2.5520028042
 H         -0.7027471928        2.9604349268        2.9130825054
 H          1.1306927967        2.9872904168        1.2591404096
 C          1.3620974261        1.6165517958       -1.0057469136
 H          1.6473631826        2.6681626972       -1.1475118913
 C          1.0731004822        1.0031633622       -2.3591920322
 C          0.2304412534        1.7523375395       -3.3461584870
 C          1.7030543832        1.6012258465       -3.5794313366
 H          2.0359783577        0.9389954129       -4.3645244316
 H          2.3356924850        2.4659914152       -3.4411523786
 H         -0.4476659343        1.1960996237       -3.9754434474
 H         -0.1400948953        2.7220991304       -3.0495340934
 H          0.9840662591       -0.0759312538       -2.3259289740
 O          1.5375543451       -1.1850395896       -0.2600027733
