  62
        -98.92831606
 C         -2.4299806889       -0.0305236951       -0.5286925216
 C         -3.4269208492        0.8037331593        0.0305878348
 C         -4.6270575258        0.1211259575        0.5577250429
 C         -4.6941799670       -1.2199081027        0.5230850813
 C         -5.8352556862       -2.0937881553        0.9651209913
 C         -6.7612176584       -2.4182039676       -0.2193833960
 C         -7.8613397457       -1.3893178628       -0.4776939399
 H         -8.3525882788       -1.6667069361       -1.4132322316
 H         -8.6081307845       -1.4559486151        0.3162877635
 C         -7.3883686974        0.0629850364       -0.5824293706
 H         -6.4752409775        0.1107955973       -1.1785062643
 H         -8.1541458584        0.6263538774       -1.1192805702
 C         -7.1548963977        0.7218546507        0.7852808712
 H         -7.5907806094        0.0933021392        1.5616678833
 H         -7.6882084075        1.6740275573        0.8228872730
 C         -5.6879688139        1.0230274529        1.1279297246
 H         -5.4267301148        2.0215751288        0.7633407375
 H         -5.5741019590        1.0504667386        2.2168304836
 H         -6.1383501638       -2.5239141940       -1.1113801839
 H         -7.2374634875       -3.3838203353       -0.0377518567
 H         -5.3921845628       -3.0246033008        1.3253526736
 H         -6.3845275392       -1.6293005186        1.7786033772
 O         -3.6963440202       -1.9881059662        0.0043237937
 C         -2.5590051582       -1.4218547953       -0.5350465003
 O         -1.7416254251       -2.2470822581       -0.9914779998
 H          1.3556430647       -0.5088592106       -1.1854220925
 C          1.1713180325        0.0591208838       -0.2832570907
 C         -0.0725178849        0.6414784203       -0.0899897532
 C         -0.3017835366        1.3531090085        1.0833525276
 C          0.6953446382        1.4744576755        2.0340601628
 C          1.9334193266        0.8872281308        1.8405967981
 C          2.1718110600        0.1717864360        0.6749465403
 N          3.4189847820       -0.4492589398        0.4804377105
 S          4.7975447868        0.4585473973        0.8466526070
 O          5.0154903850        0.4042436400        2.2701948937
 O          4.6824450090        1.7816216930        0.2750464632
 C          6.0555051519       -0.4802769533        0.0046309750
 C          6.5516978889       -1.6179262368        0.6125423150
 C          7.5128944275       -2.3648312005       -0.0495430426
 C          7.9583470487       -1.9647171640       -1.3008078654
 C          7.4511708739       -0.8202848899       -1.8975340653
 C          6.4885578195       -0.0690949233       -1.2415771143
 H          6.0726618490        0.8319202618       -1.6633856818
 H          7.8014222666       -0.5106341256       -2.8690207249
 H          8.7077094347       -2.5470813591       -1.8132322034
 H          7.9115738628       -3.2540542199        0.4114513731
 H          6.1823829020       -1.8851661669        1.5888055788
 H          3.4955756220       -0.8688790332       -0.4362785055
 H          2.7180902254        0.9784532135        2.5742461424
 H          0.5069851780        2.0327779688        2.9391168590
 H         -1.2654766546        1.8142379421        1.2379522362
 C         -1.1437314808        0.4992776938       -1.1411767408
 H         -0.8163299387       -0.2887721768       -1.8380178068
 C         -1.3468535101        1.7652504172       -1.9628177097
 C         -0.8345376138        3.1127502690       -1.5634000289
 C         -0.1865840171        2.3746690205       -2.6934864894
 H         -0.3358566996        2.7291642443       -3.7020803400
 H          0.7910779505        1.9528432449       -2.5121708710
 H         -1.4556172387        3.9672269796       -1.7843685033
 H         -0.2904482951        3.2016850825       -0.6363906558
 H         -2.2963682352        1.7539159746       -2.4882096149
 O         -3.3466999547        2.0571915211        0.0929539157
