  62
        -98.92926589
 C         -2.1343396756       -0.5401022233        0.8660748898
 C         -2.5875569135       -0.2873474035       -0.4503983236
 C         -3.4812830492        0.8786298926       -0.6328714994
 C         -3.7525205597        1.6660575204        0.4232264340
 C         -4.6673688183        2.8595608897        0.4853242818
 C         -6.1527826357        2.4612065075        0.5211187305
 C         -6.5429794829        1.3371729375       -0.4356940689
 H         -7.5806447202        1.0660069092       -0.2238238481
 H         -5.9308571302        0.4579979992       -0.2257871575
 C         -6.4449292901        1.6809417449       -1.9200642876
 H         -7.1094331406        2.5203447907       -2.1372770043
 H         -6.8101542068        0.8154216723       -2.4788739919
 C         -5.0467892967        2.0255515420       -2.4363262288
 H         -4.7572639014        3.0291825628       -2.1370226039
 H         -5.0959995578        2.0301379055       -3.5292588411
 C         -3.9594023872        1.0242607904       -2.0575854599
 H         -3.0620067821        1.2430376285       -2.6494668896
 H         -4.2723001984        0.0223234788       -2.3732543023
 H         -6.7535771192        3.3472320781        0.3097382244
 H         -6.3875029961        2.1285994445        1.5352457499
 H         -4.4279895926        3.3916742838        1.4086561578
 H         -4.4633570036        3.5290789216       -0.3449435134
 O         -3.2225949970        1.4306697089        1.6580490508
 C         -2.4147912072        0.3412179191        1.9125942064
 O         -2.0020618933        0.2720775332        3.0885840804
 H          0.7969945138       -0.0801566186        0.9816327723
 C          0.8754398796       -0.8852475455        0.2603107056
 C         -0.1212254064       -1.8529337741        0.2235116925
 C         -0.0138981955       -2.8822581348       -0.7013500316
 C          1.0587906944       -2.9275511884       -1.5744884821
 C          2.0452916549       -1.9596384054       -1.5400901012
 C          1.9518010597       -0.9291448495       -0.6135102162
 N          2.9523911859        0.0625722198       -0.5737156577
 S          4.5496497247       -0.4933020412       -0.6243021207
 O          4.9157996793       -0.7020392797       -2.0026950320
 O          4.7021334579       -1.6355818871        0.2487718556
 C          5.4376628406        0.9070555648        0.0283629699
 C          5.7166674234        0.9540215888        1.3812732040
 C          6.3944579553        2.0515132447        1.8881564291
 C          6.7782918933        3.0781647003        1.0384050217
 C          6.4914664598        3.0163808206       -0.3171838949
 C          5.8141062445        1.9218365418       -0.8307502744
 H          5.5786066948        1.8254526575       -1.8777710910
 H          6.7946121628        3.8151419320       -0.9746452172
 H          7.3077023053        3.9299137812        1.4352850912
 H          6.6219188062        2.1004808921        2.9409341771
 H          5.4097337998        0.1282287986        2.0032755499
 H          2.8185335456        0.7025337946        0.1976143233
 H          2.8887993146       -1.9899502399       -2.2110935248
 H          1.1273611058       -3.7282865871       -2.2956076946
 H         -0.7834012778       -3.6346300503       -0.7547535012
 C         -1.2588034395       -1.7339048752        1.2073651032
 H         -0.8229925861       -1.4886831847        2.1900960376
 C         -2.0252026134       -3.0352844098        1.3926575154
 C         -3.4019081579       -3.0325098839        1.9857595914
 C         -3.2046472375       -3.4139918813        0.5509391606
 H         -3.3228967496       -4.4524383150        0.2775024901
 H         -3.5173552171       -2.7239607647       -0.2161217838
 H         -3.8471289064       -2.0726081356        2.2049213782
 H         -3.6578298351       -3.8044865271        2.6957108478
 H         -1.3696523481       -3.8436273517        1.7027193699
 O         -2.2879377237       -0.9967038671       -1.4445977157
