  62
        -98.93792647
 C          1.9335935096        1.2185840005        0.0188306867
 C          2.5988406285        0.4271132821        0.9841326188
 C          3.2573193885       -0.7895839318        0.4882603394
 C          3.1490677065       -1.1054552289       -0.8153883358
 C          3.8212928623       -2.2685970095       -1.4878018090
 C          5.3144464382       -1.9558919670       -1.7145634423
 C          6.2718380133       -2.8477563451       -0.9241193666
 H          6.3130634185       -3.8310140462       -1.3972512100
 H          7.2670138993       -2.4042446776       -0.9968412371
 C          5.9243144887       -3.0531760055        0.5533828389
 H          5.1374507982       -3.8035388476        0.6448876205
 H          6.8110716636       -3.4719819549        1.0337550469
 C          5.4953531099       -1.7969232906        1.3222027873
 H          5.9264769115       -1.8484670536        2.3240339408
 H          5.8958424992       -0.9002284957        0.8491159791
 C          3.9732747958       -1.6421741170        1.4997822522
 H          3.5064226520       -2.6310325719        1.5367354375
 H          3.7820253357       -1.1548091021        2.4607220605
 H          5.5494288810       -2.0566588304       -2.7750897493
 H          5.4880563539       -0.9103760327       -1.4518546501
 H          3.7035468253       -3.1622750481       -0.8785841958
 H          3.3150654998       -2.4284877021       -2.4400535129
 O          2.4620117435       -0.3442146215       -1.7049336865
 C          1.8236422673        0.8238278726       -1.3147471215
 O          1.2150104448        1.4049501301       -2.2317555929
 O          2.6327543375        0.7219325601        2.2113724562
 C          1.2170751339        2.4794019012        0.4751747693
 C         -0.2683150888        2.2451753247        0.3513372847
 C         -1.1160401849        3.0091191732       -0.4382648417
 C         -2.4582291406        2.6835392717       -0.5417271658
 C         -2.9811501386        1.5965558118        0.1347961382
 C         -2.1414337574        0.8306607534        0.9331465437
 C         -0.8028929237        1.1629972902        1.0417236517
 H         -0.1489238883        0.5583761784        1.6590308704
 N         -2.6664719507       -0.2997357399        1.6086179729
 S         -2.9403808830       -1.6169062632        0.5899073038
 O         -3.0012710951       -2.7710545495        1.4611406308
 O         -1.9628239163       -1.6713301865       -0.4755160554
 C         -4.5583915623       -1.2891347497       -0.0720876438
 C         -4.6990676323       -0.9537687438       -1.4041914307
 C         -5.9671835982       -0.6830310051       -1.8947118073
 C         -7.0639046117       -0.7510991215       -1.0487668700
 C         -6.9049696739       -1.0913696082        0.2865918922
 C         -5.6405108960       -1.3640943096        0.7834017048
 H         -5.4694774940       -1.6382857219        1.8109284416
 H         -7.7604369546       -1.1438522249        0.9404781359
 H         -8.0486421652       -0.5376596198       -1.4334398838
 H         -6.0922034574       -0.4179226933       -2.9322379206
 H         -3.8154562993       -0.9068622235       -2.0208754478
 H         -2.0652453679       -0.6074060176        2.3619698708
 H         -4.0245973866        1.3391547517        0.0543524894
 H         -3.1049281532        3.2832204103       -1.1636585422
 H         -0.7231601253        3.8503042817       -0.9848681684
 H          1.4575015241        2.5798614443        1.5437191705
 C          1.7158892131        3.7049325238       -0.2572820410
 C          1.5329225596        5.0615061804        0.3532369432
 C          2.8978884226        4.4472447410        0.2876990116
 H          3.6156927277        4.8538216284       -0.4086862625
 H          3.3387590088        4.0787124820        1.2025193790
 H          1.3145985995        5.8944589916       -0.2973944118
 H          1.0463088464        5.1133793103        1.3153458740
 H          1.6386833860        3.6113610423       -1.3340157420
