  62
        -98.94223707
 C          1.8910571566        1.2973819415       -0.0826496362
 C          3.0565160196        1.2133687415        0.7241151708
 C          4.2277960292        0.5644391137        0.1225047946
 C          4.1474410300        0.1101616415       -1.1409317752
 C          5.2445572820       -0.6129101250       -1.8658175599
 C          5.1325466468       -2.1314084724       -1.6706317565
 C          4.9540023185       -2.5550953141       -0.2125336300
 H          3.9868987818       -2.1965156257        0.1481504345
 H          4.9177773454       -3.6465714345       -0.1930521795
 C          6.0601650728       -2.0633685068        0.7316027677
 H          6.3596460771       -2.8899642474        1.3793792110
 H          6.9375832633       -1.7709710107        0.1535833133
 C          5.6475568555       -0.9082226027        1.6460511116
 H          6.4185136084       -0.7895948275        2.4120395058
 H          4.7150436496       -1.1609774935        2.1573294468
 C          5.4687676680        0.4531496958        0.9622778887
 H          5.3680449274        1.2084491339        1.7471550477
 H          6.3567176561        0.6875450147        0.3715471449
 H          4.2720531979       -2.4918443939       -2.2392765208
 H          6.0296932410       -2.5993792147       -2.0799653358
 H          5.1628374043       -0.3852755506       -2.9300204695
 H          6.2072293336       -0.2594780075       -1.5015821709
 O          3.0238977683        0.2203516842       -1.8907405547
 C          1.8632115214        0.7960652068       -1.3846096518
 O          0.9153227032        0.7860688895       -2.1922433181
 H         -0.3665102075       -0.2363319923       -0.6162747460
 C         -0.7167080307       -0.1115141430        0.3979013157
 C         -0.2684679257        0.9701784822        1.1441452284
 C         -0.7351589168        1.1181908006        2.4448626910
 C         -1.6248644715        0.2044103704        2.9836810111
 C         -2.0697597564       -0.8712761291        2.2365082088
 C         -1.6103071526       -1.0270414660        0.9347085118
 N         -2.0639717022       -2.1125271963        0.1574193216
 S         -3.7222356629       -2.2403159310       -0.0568050010
 O         -4.3221597212       -2.6829164304        1.1766298787
 O         -3.8987322832       -3.1063256409       -1.1996682772
 C         -4.2567577787       -0.5832049346       -0.4376022883
 C         -4.7029245723        0.2409289860        0.5761750879
 C         -5.0377944806        1.5510810056        0.2735210126
 C         -4.9238271668        2.0111292558       -1.0290671413
 C         -4.4805256227        1.1685956481       -2.0371122263
 C         -4.1356165512       -0.1397766905       -1.7396471190
 H         -3.7852794316       -0.8250457718       -2.4951433754
 H         -4.3922845852        1.5277000476       -3.0497716554
 H         -5.1799259789        3.0324817342       -1.2611731218
 H         -5.3825128689        2.2088103991        1.0548299378
 H         -4.7856291442       -0.1569096265        1.5738747661
 H         -1.6019715802       -2.1695303710       -0.7394236472
 H         -2.7648388401       -1.5914216000        2.6370649599
 H         -1.9744170265        0.3293854070        3.9970713162
 H         -0.3853932155        1.9495776414        3.0390103821
 C          0.6832504564        1.9726727969        0.5439715996
 H          1.1009810063        2.5652151333        1.3731305156
 C         -0.0109602504        2.9473535907       -0.3988096431
 C         -1.3420944580        2.6917839927       -1.0322079342
 C         -1.2199658475        3.7083687091        0.0601331291
 H         -1.2975901057        4.7549492132       -0.1912492595
 H         -1.6297318620        3.4507511576        1.0249182831
 H         -1.4823651324        3.0279116302       -2.0478361537
 H         -1.8470872015        1.7647544569       -0.8118197958
 H          0.7071489705        3.4935834266       -1.0027825591
 O          3.1136435155        1.6709125454        1.8968592508
