  62
        -98.93365366
 C          2.0925997444        0.7330084129        0.7717596191
 C          2.8445079304       -0.4420481824        1.0158327931
 C          4.2643530166       -0.4388694611        0.6158679404
 C          4.7719700415        0.6751926581        0.0570188860
 C          6.1650483202        0.9057260906       -0.4650147780
 C          6.4065118932        0.2281739989       -1.8239103164
 C          5.8640520803       -1.1940959932       -1.9392895677
 H          4.7915904504       -1.1873296335       -1.7354110049
 H          5.9943741571       -1.5161834154       -2.9758623907
 C          6.5444198652       -2.2251964884       -1.0419899235
 H          7.6098318592       -2.2603965363       -1.2805799165
 H          6.1169512304       -3.2009219744       -1.2870613115
 C          6.3919436048       -2.0061107111        0.4645692976
 H          7.0539628084       -1.2189462291        0.8152583321
 H          6.7139788676       -2.9261748455        0.9612368224
 C          4.9633819946       -1.7396892933        0.9291648942
 H          4.3083462279       -2.5322304487        0.5492944661
 H          4.9276416955       -1.8381283567        2.0211386464
 H          7.4792444500        0.2284948146       -2.0240686754
 H          5.9191390036        0.8323485266       -2.5928952857
 H          6.8966759910        0.5784977438        0.2677373765
 H          6.2785659869        1.9848367011       -0.5897194446
 O          4.0148665734        1.7873889685       -0.1533245097
 C          2.6706023129        1.8549041528        0.1771675159
 O          2.1395678700        2.9437077665       -0.1066547915
 O          2.3470830015       -1.4693956163        1.5537461780
 C          0.6333364492        0.7049833078        1.1854065151
 C         -0.2449427745        0.2266516622        0.0565348143
 C         -0.1156674787        0.7434432404       -1.2296342699
 C         -0.9277921320        0.2913572638       -2.2531654296
 C         -1.8981149211       -0.6660203460       -2.0107640114
 C         -2.0407079833       -1.1821249602       -0.7291982170
 C         -1.2087764340       -0.7426598953        0.2921090916
 H         -1.3267606235       -1.1654627123        1.2781084206
 N         -3.0313404814       -2.1424499916       -0.4357319091
 S         -4.2411226530       -1.6748536379        0.6258607566
 O         -3.6611112328       -1.3182696551        1.8936529981
 O         -5.1926793983       -2.7621543450        0.6272243204
 C         -4.9606759595       -0.2393081480       -0.1521024559
 C         -4.3539653562        0.9884799888        0.0227319699
 C         -4.8641865424        2.0889415141       -0.6475805245
 C         -5.9649579461        1.9428845140       -1.4778967001
 C         -6.5641435827        0.7029667514       -1.6420751195
 C         -6.0554532455       -0.4019510577       -0.9785516652
 H         -6.4914285644       -1.3834146738       -1.0734752638
 H         -7.4219427874        0.5938492330       -2.2859980224
 H         -6.3582157354        2.8017704469       -1.9984125619
 H         -4.3966792808        3.0520350540       -0.5184876965
 H         -3.5032748163        1.0671892482        0.6793191664
 H         -3.4519671735       -2.5529124439       -1.2582930202
 H         -2.5364966515       -1.0146578038       -2.8086440764
 H         -0.8117180211        0.6963679777       -3.2468699058
 H          0.6240675786        1.5078759455       -1.4135848232
 H          0.5812619243       -0.0561131514        1.9805597834
 C          0.1467054062        2.0203422001        1.7806153552
 C         -0.9201974563        2.8580783362        1.1476567116
 C         -1.2179747003        2.0920412051        2.3998978649
 H         -1.3373472806        2.6364011660        3.3246105232
 H         -1.8424023791        1.2120567262        2.3306913439
 H         -0.8138335236        3.9301947155        1.2094322775
 H         -1.3509096005        2.5168887480        0.2191575259
 H          0.9405322141        2.5564181520        2.2895601469
