  62
        -98.94793229
 C          1.1341336693        1.1915772105        0.4773186102
 C          1.5251521593        0.4776968305       -0.6808509198
 C          2.2964182497       -0.7493395492       -0.4379006098
 C          2.4793344100       -1.1864944791        0.8210041702
 C          3.2010799704       -2.4434977989        1.2251552302
 C          4.7222954504       -2.2751960885        1.3432229899
 C          5.4650102601       -2.1250751184        0.0147375597
 H          6.5300211002       -2.2291870881        0.2312387995
 H          5.1870984802       -2.9434357385       -0.6500389702
 C          5.2337956896       -0.7817054385       -0.6916911904
 H          4.8214501396       -0.0626180085        0.0200733497
 H          6.1910060895       -0.3802488583       -1.0318099906
 C          4.3144809494       -0.8559027288       -1.9110696402
 H          4.7847345594       -1.4639505388       -2.6868568302
 H          4.1878193691        0.1552113111       -2.3058338502
 C          2.9215250996       -1.4301349792       -1.6190693799
 H          2.2849316994       -1.2419709294       -2.4869959698
 H          2.9924326599       -2.5053741891       -1.4540760098
 H          4.9289726003       -1.4092714183        1.9766684398
 H          5.1091084007       -3.1597545983        1.8545295699
 H          2.8082512607       -2.7263218989        2.2044080303
 H          2.9762394205       -3.2426326090        0.5181099903
 O          1.9940503100       -0.5220979791        1.9056696202
 C          1.3638303297        0.7050329807        1.7644296802
 O          1.0552074097        1.2515834507        2.8436429102
 H         -1.5485981805        1.0084049199        1.2506384707
 C         -1.8249987608        1.4848064498        0.3207187007
 C         -0.9193782611        2.3305440599       -0.3102670595
 C         -1.2989981915        2.9526955297       -1.4917401595
 C         -2.5528718115        2.7210859894       -2.0304893292
 C         -3.4482447012        1.8742635092       -1.4047813490
 C         -3.0824989408        1.2548807394       -0.2137482090
 N         -3.9922541205        0.4251987992        0.4625292612
 S         -3.5073555900       -1.0068939606        1.1675136413
 O         -4.7483791397       -1.6959184009        1.4494128915
 O         -2.6510648598       -0.7529544203        2.2974697011
 C         -2.6239567800       -1.8807585705       -0.1095099188
 C         -1.2454408200       -1.9131585401       -0.0975635891
 C         -0.5840451400       -2.5807261100       -1.1161589891
 C         -1.3077927300       -3.1903658203       -2.1285004590
 C         -2.6940030500       -3.1475572707       -2.1277946287
 C         -3.3603430800       -2.4868871608       -1.1096012786
 H         -4.4363303300       -2.4467091510       -1.0597519584
 H         -3.2536740300       -3.6263384009       -2.9149807786
 H         -0.7850573100       -3.7036153702       -2.9199496790
 H          0.4930384600       -2.6086515698       -1.1131509093
 H         -0.7113692999       -1.4252509799        0.7037499908
 H         -4.8794622305        0.3110794889       -0.0060845686
 H         -4.4265660712        1.6978708989       -1.8248664288
 H         -2.8352762918        3.2061464092       -2.9523215592
 H         -0.6133529718        3.6143198099       -1.9938829597
 C          0.4253861190        2.5284940103        0.3467650002
 H          0.2445452791        2.8743938204        1.3751544202
 C          1.3138980786        3.5326559605       -0.3568003200
 C          1.1107514882        4.9994538705       -0.1300322401
 C          2.3082000385        4.3099539408        0.4500602997
 H          3.2786700284        4.5092884611        0.0207061596
 H          2.3319768088        4.1315556209        1.5157613998
 H          1.2616767479        5.6762059805       -0.9572598502
 H          0.3214625983        5.2955889203        0.5443813200
 H          1.6221530885        3.2037295705       -1.3420044900
 O          1.2597545790        0.8431251604       -1.8540144098
