  62
        -98.94193004
 C         -1.3535988896       -1.2262772537        0.6898843718
 C         -1.3988695993       -0.3358489719       -0.4128115901
 C         -2.2580189707        0.8450329525       -0.2337067593
 C         -2.8050741872        1.1040355948        0.9661949408
 C         -3.6757099911        2.2817559241        1.3095489552
 C         -5.1593620411        2.0732285987        0.9757825896
 C         -5.4989392503        2.0985581660       -0.5150806634
 H         -6.5865463084        2.1531153481       -0.5945376788
 H         -5.0946025235        3.0066823638       -0.9631798679
 C         -5.0078816600        0.8725003288       -1.2976783886
 H         -4.7699220656        0.0661177904       -0.5999402480
 H         -5.8099660152        0.5075150240       -1.9431897645
 C         -3.7930083309        1.1336653177       -2.1883193748
 H         -4.0627369090        1.8426514070       -2.9741051152
 H         -3.5137084428        0.1921643126       -2.6684786375
 C         -2.5634048381        1.6735063575       -1.4443431540
 H         -1.7034882442        1.6089974373       -2.1137619373
 H         -2.7237239671        2.7144424701       -1.1658686236
 H         -5.4851436112        1.1238343691        1.4076328979
 H         -5.7204579285        2.8707244107        1.4684440050
 H         -3.5838523956        2.4342055388        2.3871202999
 H         -3.3090675434        3.1724062064        0.7991623045
 O         -2.5991665676        0.3050385244        2.0482594307
 C         -1.9170969774       -0.8945925496        1.9244594792
 O         -1.8603677577       -1.5593772542        2.9797806573
 H          1.3372426288       -1.1913162329        1.7355303757
 C          1.6535334147       -1.5963646388        0.7813217674
 C          0.7542953658       -2.3547799432        0.0412691622
 C          1.1650831758       -2.8620185298       -1.1834879224
 C          2.4427293740       -2.6087722394       -1.6521815595
 C          3.3370034074       -1.8579507667       -0.9110886752
 C          2.9348564793       -1.3468204748        0.3163709161
 N          3.8395073084       -0.5836738363        1.0860478901
 S          4.4248976597        0.8276046750        0.4009939509
 O          5.2701841444        0.4924027881       -0.7159709724
 O          5.0542074512        1.5448349202        1.4867955016
 C          2.9818623741        1.7106115893       -0.1595782450
 C          2.4878256459        1.4726205667       -1.4259664060
 C          1.3416018706        2.1367169988       -1.8309450389
 C          0.7129971635        3.0190781318       -0.9668002976
 C          1.2163831199        3.2400420295        0.3057734805
 C          2.3602485071        2.5768379887        0.7176300719
 H          2.7917087844        2.7280065102        1.6944799105
 H          0.7210882961        3.9242780740        0.9761512783
 H         -0.1754494924        3.5394377453       -1.2869808155
 H          0.9408865763        1.9557064137       -2.8150615419
 H          3.0057696729        0.7833055147       -2.0721185834
 H          3.4931970764       -0.3806806933        2.0133791518
 H          4.3321488462       -1.6456754142       -1.2673103197
 H          2.7472015521       -3.0018227787       -2.6103882458
 H          0.4753633024       -3.4321919992       -1.7836278886
 C         -0.6249133794       -2.5574510333        0.6154783074
 H         -0.5060358964       -2.8748263756        1.6645412098
 C         -1.4134340697       -3.6572842646       -0.0800764931
 C         -2.9078995236       -3.7084847503        0.0270300961
 C         -2.2607563821       -3.4109855027       -1.2903518706
 H         -2.2893889192       -4.1722465316       -2.0563079747
 H         -2.3103142519       -2.4049324296       -1.6741639897
 H         -3.3819969222       -4.6683235014        0.1669188410
 H         -3.3968692217       -2.9004739172        0.5524929364
 H         -0.8967382865       -4.6111658081       -0.0340199400
 O         -0.7771705297       -0.5045587890       -1.4903116279
