  62
        -98.94516201
 C          1.8559520087        1.2264176702       -0.2544023393
 C          2.8908507890        0.4990590007        0.3724435607
 C          3.1684523297       -0.8429932292       -0.1664919393
 C          2.4397569901       -1.2934118894       -1.2029698795
 C          2.5004067508       -2.6522672293       -1.8436856396
 C          1.4620840512       -3.5888415099       -1.2008667198
 C          1.9666138114       -4.3600650098        0.0170225102
 H          2.7036508518       -5.1017588894       -0.3000478397
 H          1.1120406316       -4.8971646902        0.4353528501
 C          2.5785411709       -3.4880426396        1.1161941004
 H          2.5388871410       -4.0493017196        2.0523069503
 H          1.9588465704       -2.5984194999        1.2503518604
 C          4.0359382507       -3.0923848588        0.8337589806
 H          4.4163356911       -3.7045284086        0.0159239806
 H          4.6478629307       -3.3273691486        1.7073045406
 C          4.2691297100       -1.6074468287        0.5175079507
 H          5.1833781800       -1.5102289182       -0.0780132892
 H          4.4446174397       -1.0619082687        1.4502784508
 H          1.1250847216       -4.3110140700       -1.9477477999
 H          0.5977584509       -2.9865881903       -0.9066115798
 H          2.2426933009       -2.5139228494       -2.8958173296
 H          3.5014711910       -3.0686495389       -1.7784773895
 O          1.4680627198       -0.5491793399       -1.7952483295
 C          1.1248232191        0.6997894499       -1.3176007994
 O          0.1764445389        1.2409475795       -1.9203355595
 H          0.1994980789        0.5700508793        1.5388888704
 C         -0.4834669815        1.3770437689        1.3169758904
 C         -0.0162316820        2.5249240392        0.6894686306
 C         -0.9172739425        3.5516391888        0.4375089906
 C         -2.2533882524        3.4114121881        0.7735746904
 C         -2.7240251019        2.2400115579        1.3384065902
 C         -1.8267382015        1.2131224383        1.6069159503
 N         -2.2448735809       -0.0219023620        2.1483439901
 S         -2.0737058202       -1.3576543518        1.1447206400
 O         -2.5928579097       -2.4723056321        1.9086135899
 O         -0.7108696201       -1.4696407811        0.6981269602
 C         -3.1752926102       -1.0149822322       -0.2158006201
 C         -4.4530697599       -1.5404610629       -0.1721866303
 C         -5.3462426700       -1.2215905532       -1.1814333303
 C         -4.9511291903       -0.3763855829       -2.2078698402
 C         -3.6673569105        0.1454193777       -2.2339499600
 C         -2.7651467505       -0.1722970119       -1.2292214100
 H         -1.7597811607        0.2207874885       -1.2373435698
 H         -3.3511738707        0.8024498179       -3.0282973399
 H         -5.6459576603       -0.1234602432       -2.9931205803
 H         -6.3441242198       -1.6291800637       -1.1636596605
 H         -4.7119402597       -2.1952787130        0.6443676797
 H         -3.1884194410       -0.0070156025        2.5121366600
 H         -3.7720826419        2.1169671273        1.5669020401
 H         -2.9418871228        4.2168662378        0.5687092304
 H         -0.5752312829        4.4592118690       -0.0325835893
 C          1.4427077780        2.5756659300        0.3053249707
 H          2.0426137179        2.7153882602        1.2171558008
 C          1.7693177676        3.6861674402       -0.6712420191
 C          2.1081314969        5.0589538503       -0.1735956190
 C          3.1795312474        4.1860012109       -0.7521476989
 H          3.5837285374        4.4345668012       -1.7218872789
 H          3.8997191575        3.7419574812       -0.0804203989
 H          2.1085030567        5.2181959302        0.8941111210
 H          1.7797274665        5.9116953702       -0.7484655589
 H          1.2154714977        3.5971172000       -1.5991912092
 O          3.5455256187        0.9464524209        1.3553875708
