  62
        -98.93605413
 C          2.5719883174        0.8674248074        0.3443022084
 C          2.9966602500       -0.1895573193        1.1892853230
 C          3.6274207256       -1.3360395862        0.5268321050
 C          3.7599070473       -1.3407787460       -0.8118062108
 C          4.3972085529       -2.4267437219       -1.6354065637
 C          3.4507992981       -3.5865147917       -1.9748680871
 C          3.1124302207       -4.5132801681       -0.8064121989
 H          2.6244948055       -5.3944155344       -1.2276842521
 H          4.0349517957       -4.8481424071       -0.3311908690
 C          2.1845603142       -3.8918507165        0.2469967262
 H          1.6947815139       -3.0107092123       -0.1746734675
 H          1.3967749210       -4.6036945188        0.5035311001
 C          2.8798354916       -3.4968989293        1.5501321962
 H          3.2628319481       -4.3911398136        2.0466239127
 H          2.1390458009       -3.0371973009        2.2094771304
 C          4.0359672769       -2.5034805023        1.3738433064
 H          4.3118877335       -2.1202474012        2.3593236077
 H          4.9002634224       -3.0047685198        0.9387796831
 H          3.9314202989       -4.1812251999       -2.7550405153
 H          2.5294442335       -3.1735622719       -2.3922876786
 H          5.2766066692       -2.8115032622       -1.1182373929
 H          4.7185385368       -1.9602929698       -2.5691501353
 O          3.3231385233       -0.3173785221       -1.5908903650
 C          2.6925238193        0.7953489265       -1.0449123585
 O          2.3049271483        1.6168285838       -1.8950663693
 O          2.8481011164       -0.1777751497        2.4407994455
 C          1.8821216902        2.0521086734        0.9968992256
 C          0.5791228316        2.3383875979        0.2926245680
 C          0.2846567496        3.5443166459       -0.3273995887
 C         -0.9315471886        3.7235374992       -0.9640903272
 C         -1.8735257613        2.7128325325       -0.9992998938
 C         -1.5916300787        1.5025645799       -0.3778012215
 C         -0.3785223174        1.3308793070        0.2713213859
 H         -0.1562169999        0.3876495742        0.7566211792
 N         -2.5277411737        0.4516505475       -0.4284059889
 S         -4.1506248169        0.8380585692       -0.1631208305
 O         -4.6963193413        1.3872736075       -1.3787117110
 O         -4.2785870191        1.6658618483        1.0158970352
 C         -4.8397169613       -0.7782733176        0.1301618821
 C         -5.0589110504       -1.1987023822        1.4281201156
 C         -5.5740844401       -2.4674462208        1.6433402154
 C         -5.8558657337       -3.2902855286        0.5632286382
 C         -5.6300008206       -2.8539713068       -0.7339973444
 C         -5.1170648598       -1.5860453846       -0.9564496112
 H         -4.9344289505       -1.2012809363       -1.9461834706
 H         -5.8526397701       -3.4959508980       -1.5709539322
 H         -6.2567216950       -4.2769733496        0.7336075502
 H         -5.7531546000       -2.8084643833        2.6503156886
 H         -4.8321362068       -0.5224050704        2.2368084247
 H         -2.2484887012       -0.3309668160        0.1475486447
 H         -2.8212036196        2.8431948826       -1.4963894698
 H         -1.1468507739        4.6644065974       -1.4482407856
 H          1.0144124140        4.3370177384       -0.3333036029
 H          1.6419506985        1.6968387791        2.0136746875
 C          2.7616724638        3.2799759806        1.1734858165
 C          4.2469797418        3.1470315453        1.3245665977
 C          3.6730749157        3.7863373115        0.0976106803
 H          3.7800905220        4.8550893763       -0.0189834972
 H          3.7014821675        3.2416091259       -0.8325204516
 H          4.7479824137        3.7731510713        2.0474937483
 H          4.6717950899        2.1577697363        1.2336094391
 H          2.2826807770        4.0302783479        1.7956053402
