  62
        -98.93296574
 C          1.8028607766        1.0599773999        0.0004112482
 C          2.6130112895        0.5265050278        1.0314838827
 C          3.8023471712       -0.2427994902        0.6217503892
 C          4.0130324002       -0.4642683973       -0.6878738836
 C          5.1457127354       -1.2048512200       -1.3528710841
 C          5.5757899834       -2.5331094983       -0.7113864116
 C          6.9400191012       -2.4638462612       -0.0225216156
 H          7.3626203128       -3.4703525345        0.0163375971
 H          7.6075965063       -1.8542608345       -0.6350955869
 C          6.9220806253       -1.9157145904        1.4034154865
 H          6.4664364220       -2.6528636694        2.0682494397
 H          7.9595959353       -1.7894161964        1.7215584492
 C          6.1887467717       -0.5850933716        1.5832802158
 H          6.4083887487        0.0864124622        0.7538939436
 H          6.5746770402       -0.1107913575        2.4881427662
 C          4.6691445902       -0.7378421381        1.7473595039
 H          4.4192856346       -1.7829757372        1.9524796987
 H          4.3350608465       -0.1731378285        2.6234082717
 H          5.6378448169       -3.2798170829       -1.5048198874
 H          4.8135592767       -2.8716296515       -0.0111081104
 H          6.0044241155       -0.5322057997       -1.4224055457
 H          4.8053100304       -1.3804818579       -2.3760211738
 O          3.1678953548        0.0103833359       -1.6460732650
 C          2.0528288662        0.7784929869       -1.3430298316
 O          1.3928682904        1.1224792227       -2.3396556725
 O          2.3536050778        0.6851439530        2.2553701820
 C          0.5911509942        1.8792797878        0.4074869125
 C         -0.6344691784        1.3884801098       -0.3209615347
 C         -1.4021578384        2.1801639378       -1.1635496625
 C         -2.5067141736        1.6502540397       -1.8085631373
 C         -2.8730703036        0.3305840837       -1.6238444474
 C         -2.1180804923       -0.4676977501       -0.7729675031
 C         -1.0167773726        0.0665349536       -0.1230586039
 H         -0.4243128648       -0.5588706795        0.5339929067
 N         -2.4869305789       -1.8077045755       -0.5694213265
 S         -4.1066373787       -2.1605855885       -0.3498766483
 O         -4.1242504843       -3.3756268086        0.4346164245
 O         -4.7693323782       -2.2295231670       -1.6283759318
 C         -4.7594325772       -0.7953178035        0.5957271739
 C         -5.7698881136       -0.0143243700        0.0732923011
 C         -6.2384671237        1.0592311439        0.8138472616
 C         -5.6879171003        1.3340278332        2.0557531570
 C         -4.6752319796        0.5377260244        2.5688325363
 C         -4.2046810241       -0.5379956074        1.8339107471
 H         -3.4218842752       -1.1787313223        2.2075749579
 H         -4.2479424364        0.7524269412        3.5352328916
 H         -6.0493475381        2.1728751901        2.6292612970
 H         -7.0271174361        1.6786918566        0.4183303858
 H         -6.1669145932       -0.2616500326       -0.8977321992
 H         -1.9062049924       -2.3017687761        0.0910900953
 H         -3.7169501809       -0.1005727370       -2.1374823162
 H         -3.0865790586        2.2730869915       -2.4723195168
 H         -1.1199483998        3.2047346048       -1.3394518074
 H          0.4596575860        1.6502297933        1.4783821596
 C          0.7909656867        3.3841613335        0.3130015182
 C          2.1530816677        3.9915627631        0.4608043222
 C          1.4512586735        4.0390629432       -0.8616736963
 H          1.0653791763        4.9893462296       -1.2010208984
 H          1.8034084729        3.4025173794       -1.6578787353
 H          2.2492737015        4.9053862618        1.0277125877
 H          2.9920311979        3.3195557921        0.5702085781
 H         -0.0272137533        3.9280499938        0.7748555156
