  62
        -98.94756305
 C         -0.8100539507       -1.1506463300        0.5956417503
 C         -1.2817201809       -0.7742684195       -0.6850537794
 C         -2.2027355105        0.3685669008       -0.7098000689
 C         -2.4998647899        1.0133742807        0.4324629013
 C         -3.4591460194        2.1637280710        0.5732752819
 C         -4.9250075795        1.7271744315        0.7092151322
 C         -5.5720724101        1.2173333420       -0.5793669278
 H         -6.6468740001        1.1591236324       -0.3960273375
 H         -5.4169468801        1.9459326022       -1.3755609276
 C         -5.0765209708       -0.1612213380       -1.0381808482
 H         -5.9318946811       -0.7785539876       -1.3223562181
 H         -4.5810700007       -0.6669429484       -0.2060218085
 C         -4.1247587711       -0.1292558481       -2.2343808685
 H         -4.6507457512        0.2557429923       -3.1107733982
 H         -3.8154528015       -1.1548493282       -2.4510006588
 C         -2.8586750507        0.7098051114       -2.0133842386
 H         -2.1498416110        0.4768833813       -2.8113632089
 H         -3.0983965903        1.7714324515       -2.0540981683
 H         -5.4928744391        2.5938392216        1.0555094325
 H         -4.9922326096        0.9569276114        1.4810379820
 H         -3.3621654494        2.8332786311       -0.2804363480
 H         -3.1754007090        2.7012519607        1.4797315519
 O         -1.9446313197        0.6798374102        1.6287916811
 C         -1.1119794801       -0.4213024302        1.7442689206
 O         -0.7070775098       -0.6411819806        2.9053185704
 O         -0.9660595114       -1.3694016094       -1.7472991197
 C          0.0596682689       -2.3850007404        0.7416573598
 C          1.2862232187       -2.2804458106       -0.1308388105
 C          1.7841809281       -3.3398030607       -0.8785271509
 C          2.9236641079       -3.1768944809       -1.6470527112
 C          3.5921407184       -1.9673488212       -1.6787536311
 C          3.1052074090       -0.9024645811       -0.9280460307
 C          1.9632533491       -1.0682918409       -0.1624914804
 H          1.5897661596       -0.2431279009        0.4266136499
 N          3.7366561595        0.3466727686       -0.9624753306
 S          3.6299648302        1.4142196084        0.3108578297
 O          4.6650456905        2.3903476880        0.0406052596
 O          3.7205626603        0.7443646780        1.5877204195
 C          2.0458592705        2.2023529590        0.1220707503
 C          1.2942175309        2.4780333490        1.2465875206
 C          0.0998954511        3.1651873295        1.1035332511
 C         -0.3208524291        3.5592601500       -0.1566236587
 C          0.4377775505        3.2618798999       -1.2779068090
 C          1.6365210702        2.5816133695       -1.1405851895
 H          2.2549508599        2.3400703594       -1.9889051497
 H          0.1010058803        3.5619512003       -2.2569845588
 H         -1.2439719989        4.1058911903       -0.2625038583
 H         -0.4947311686        3.3837324995        1.9762466213
 H          1.6489841310        2.1407309587        2.2084500104
 H          4.6191738793        0.3869444684       -1.4491718908
 H          4.4792731183       -1.8415594314       -2.2802737713
 H          3.2985078575       -4.0057605909       -2.2282043715
 H          1.2788620677       -4.2914898405       -0.8641016710
 H          0.3929976992       -2.4040556308        1.7905310697
 C         -0.7685850816       -3.6249554200        0.4682864498
 C         -0.4702887719       -4.9115623303        1.1756149894
 C         -1.6936917715       -4.1246478599        1.5354537699
 H         -2.6602387618       -4.5078168395        1.2442736501
 H         -1.7014572411       -3.5878573001        2.4734330100
 H         -0.6003270824       -5.8390069401        0.6383785492
 H          0.3502251283       -4.9182535308        1.8773149791
 H         -1.1172182919       -3.6715414396       -0.5572206601
