  62
        -98.93887637
 C          1.7829599925        0.1649667511        0.0979776140
 C          2.8511250502        0.8254290385        0.7469383116
 C          4.1820994751        0.2051071962        0.6280449633
 C          4.3173566640       -0.9360005818       -0.0733803437
 C          5.5268044784       -1.8119293210       -0.3270280750
 C          6.9366457261       -1.3017098625       -0.0402518735
 C          7.4034333008       -0.1663384494       -0.9506340685
 H          7.5450440594       -0.5652870341       -1.9583152184
 H          8.3743928644        0.1819722264       -0.5917431823
 C          6.4557637502        1.0258470450       -1.0567760780
 H          5.5137917834        0.7066105767       -1.5075433250
 H          6.9077191068        1.7520775322       -1.7378958769
 C          6.1587566821        1.7445521679        0.2578144946
 H          5.6075810623        2.6571758782        0.0157226332
 H          7.0952660129        2.0368516818        0.7367006861
 C          5.3161017658        0.9506225069        1.2710824314
 H          4.8596412590        1.6646275440        1.9627541194
 H          5.9349909148        0.2770332564        1.8588405691
 H          7.6109026861       -2.1481170153       -0.1971632635
 H          7.0290221513       -1.0161339936        1.0034007871
 H          5.4611549802       -2.1108296055       -1.3780934158
 H          5.3617250233       -2.7215628028        0.2611207052
 O          3.2512901124       -1.5438159867       -0.6733546558
 C          1.9706591384       -1.0179568020       -0.6137793774
 O          1.1143685972       -1.6862694746       -1.2231947130
 O          2.6997057858        1.8859370999        1.4108832411
 C          0.3897166611        0.7643696068        0.1783403889
 C         -0.5522367832       -0.2326490227        0.8032655155
 C         -0.2469626116       -0.7206003275        2.0727129706
 C         -1.0518052785       -1.6621631967        2.6814094216
 C         -2.1863163578       -2.1311162017        2.0416860918
 C         -2.5034848523       -1.6471357484        0.7787303030
 C         -1.6948912451       -0.6942715509        0.1704340672
 H         -1.9539702857       -0.3525500110       -0.8173751874
 N         -3.6409729264       -2.1149741002        0.1103199624
 S         -4.4969554051       -1.1555387026       -0.9448244826
 O         -5.8082930664       -1.7678933830       -0.9964329783
 O         -3.8138760634       -1.0384539011       -2.2086307903
 C         -4.6141747165        0.4485969232       -0.1699287347
 C         -4.4342716006        1.5763746925       -0.9436782438
 C         -4.5438895287        2.8247091727       -0.3520366881
 C         -4.8301980924        2.9228771276        1.0003043897
 C         -5.0147153720        1.7807135411        1.7642693526
 C         -4.9098584749        0.5305743753        1.1764732024
 H         -5.0537649612       -0.3708451020        1.7489892042
 H         -5.2386789656        1.8600483637        2.8158435232
 H         -4.9107059479        3.8947816205        1.4610184041
 H         -4.4019085838        3.7130111676       -0.9465111945
 H         -4.2070781382        1.4521367213       -1.9902594720
 H         -4.2306015394       -2.7440445122        0.6333584668
 H         -2.8128103210       -2.8753929690        2.5091360187
 H         -0.7973955598       -2.0353978936        3.6619066559
 H          0.6425552817       -0.3567739723        2.5686312969
 H          0.4824897682        1.6234999805        0.8588184683
 C         -0.0475662598        1.2676337170       -1.1799198983
 C         -1.0373028539        2.3876240970       -1.2830491976
 C          0.4026078323        2.6271367865       -1.6214579141
 H          0.6747028207        2.7695583330       -2.6566252289
 H          1.0050290487        3.1971641468       -0.9293671139
 H         -1.7539025888        2.3629079912       -2.0894440135
 H         -1.4213589443        2.8013570736       -0.3630479139
 H         -0.0802790197        0.4843056509       -1.9296537426
