  62
        -98.93965447
 C         -1.3400695616       -1.4434974133       -0.3096537836
 C         -2.5680329859       -1.3769711844        0.3960299664
 C         -3.6123785048       -0.4992754123       -0.1543157893
 C         -3.3642485936        0.1843597528       -1.2843054289
 C         -4.2786231640        1.1115116792       -2.0460791350
 C         -5.1348393616        2.0890398102       -1.2309246497
 C         -4.4735462117        2.6149253112        0.0516382117
 H         -3.4131392738        2.3536513284        0.0625453200
 H         -4.5356874593        3.7049430808        0.0621179383
 C         -5.1439959687        2.0935743101        1.3251819281
 H         -4.8890277509        2.7597788601        2.1529092078
 H         -6.2273153760        2.1362537246        1.1921724257
 C         -4.7464308063        0.6787926435        1.7441131808
 H         -3.7097340427        0.6743664139        2.0929224090
 H         -5.3711331927        0.3915642646        2.5933840305
 C         -4.8748322674       -0.3957691921        0.6521276145
 H         -5.7425559261       -0.2165511122        0.0219462079
 H         -4.9956302314       -1.3634676430        1.1467357072
 H         -5.3684044469        2.9272804615       -1.8897478517
 H         -6.0826190794        1.6177726095       -0.9743245169
 H         -3.6192064042        1.6727380991       -2.7130348121
 H         -4.9330194549        0.5025137752       -2.6769549382
 O         -2.1775417967        0.0813737112       -1.9425552585
 C         -1.1336495903       -0.7035940390       -1.4738475104
 O         -0.1166346631       -0.6499678265       -2.1923051592
 O         -2.7877532972       -2.0420195667        1.4446703599
 C         -0.2637698453       -2.3220318768        0.2972021188
 C          0.6327629809       -1.5579120677        1.2470939355
 C          1.2031927637       -2.2013845965        2.3409044523
 C          2.0379589747       -1.5167828458        3.2043001487
 C          2.3283851625       -0.1809597863        2.9911429421
 C          1.7602537769        0.4739320718        1.9047693831
 C          0.9188844247       -0.2174330104        1.0432687601
 H          0.4735676913        0.3112817208        0.2158470305
 N          2.0140253679        1.8342344501        1.6775317735
 S          2.2123001161        2.4117680554        0.1184359506
 O          2.8570673746        3.6954059464        0.3041800534
 O          0.9470111744        2.4394501506       -0.5693301306
 C          3.3633175620        1.2741237019       -0.6295309536
 C          2.9365678472        0.2966272585       -1.5038552395
 C          3.8703496571       -0.6005579999       -2.0024511087
 C          5.1994342441       -0.5077743913       -1.6227080290
 C          5.6119981693        0.4859895514       -0.7472654247
 C          4.6864186887        1.3833402961       -0.2429505132
 H          4.9662165584        2.1787336167        0.4287712261
 H          6.6474807663        0.5613072212       -0.4569016612
 H          5.9170840709       -1.2116138549       -2.0139425975
 H          3.5442261063       -1.3686781348       -2.6859943745
 H          1.8968139518        0.2384751805       -1.7873425614
 H          2.6821856606        2.2494181548        2.3103374319
 H          2.9772145921        0.3569563530        3.6650507561
 H          2.4686524967       -2.0265990611        4.0523096579
 H          0.9757416458       -3.2407577173        2.5207635128
 H         -0.8044534301       -3.0731870540        0.8909399509
 C          0.5907109776       -3.0447582660       -0.7272917520
 C          1.1642256523       -4.3917829315       -0.4099542076
 C          0.0528715933       -4.2665246758       -1.4075394407
 H          0.2699794584       -4.4082275435       -2.4553396169
 H         -0.9322339882       -4.6036664850       -1.1187838311
 H          2.1546729291       -4.6238729058       -0.7693372046
 H          0.9292298563       -4.8307864475        0.5473117253
 H          1.1910043212       -2.3720291978       -1.3254867977
