  62
        -98.93648407
 C         -2.4767754963       -0.9636753359       -0.1421058695
 C         -3.6192475468       -0.8093289105        0.6773104509
 C         -4.7225635029       -0.0110250374        0.1184027324
 C         -4.5921231168        0.5239344553       -1.1079256708
 C         -5.5964840834        1.3320458891       -1.8913200207
 C         -6.3947696863        2.4015275451       -1.1337266548
 C         -5.6343356595        3.0909008549        0.0084854787
 H         -5.7166508537        4.1726225813       -0.1123869740
 H         -4.5739391828        2.8375355298       -0.0413639407
 C         -6.1806899210        2.7305437180        1.3920485908
 H         -7.2720586647        2.7455932729        1.3525581924
 H         -5.8690604449        3.4985294578        2.1041299328
 C         -5.7194705777        1.3840429844        1.9483538744
 H         -6.2660411944        1.1980894526        2.8760719526
 H         -4.6584329874        1.4341416841        2.2075020133
 C         -5.9137140152        0.1792152713        1.0132362507
 H         -6.8355637356        0.2669872396        0.4435729146
 H         -5.9714282869       -0.7200774788        1.6326175214
 H         -7.3087663212        1.9619087564       -0.7369811999
 H         -6.6996475051        3.1469184574       -1.8702095179
 H         -6.2934847303        0.6360938097       -2.3673270627
 H         -5.0187352169        1.8038136571       -2.6897386058
 O         -3.4664825683        0.3576441964       -1.8592191236
 C         -2.3865499328       -0.3822890614       -1.4053557459
 O         -1.4342371420       -0.4457912774       -2.2056681046
 O         -3.7182446120       -1.3243256564        1.8232762750
 C         -1.3125768882       -1.7913954224        0.3710939776
 C         -0.0701410181       -0.9402329852        0.4542930115
 C         -0.0986425151        0.2070267944        1.2437005850
 C          1.0150334829        1.0155078807        1.3589043764
 C          2.1848921602        0.6997773105        0.6890956589
 C          2.2270665647       -0.4433484092       -0.0953330763
 C          1.1060629959       -1.2575213428       -0.2048967323
 H          1.1575785746       -2.1414991240       -0.8212298846
 N          3.4110176848       -0.7665609923       -0.7803809342
 S          4.8404474831       -0.8369667752        0.0965678662
 O          5.6965051666       -1.7359554859       -0.6464422930
 O          4.5944759746       -1.1804882128        1.4780535906
 C          5.4999050956        0.8129562693       -0.0139843750
 C          5.7842319870        1.5185539993        1.1386523035
 C          6.3089393785        2.7970377155        1.0295736035
 C          6.5392117549        3.3436599873       -0.2235409389
 C          6.2504152624        2.6207429722       -1.3715777137
 C          5.7269765878        1.3418438140       -1.2694395109
 H          5.4929042203        0.7465370020       -2.1362491450
 H          6.4312070020        3.0492286321       -2.3442299958
 H          6.9468311277        4.3388341980       -0.3062979895
 H          6.5347010458        3.3604697806        1.9206979727
 H          5.5843183559        1.0545213912        2.0913765935
 H          3.3236901115       -1.5678166514       -1.3885933507
 H          3.0571273233        1.3276716888        0.7703804467
 H          0.9743383392        1.9015210419        1.9742833417
 H         -1.0121778123        0.4539235297        1.7676676478
 H         -1.5914509400       -2.0822681692        1.3947103894
 C         -1.1479952355       -3.0457525518       -0.4604203144
 C         -0.4696646640       -4.2485581459        0.1226628558
 C         -1.9503384223       -4.2605481480       -0.1075274727
 H         -2.3435900681       -4.8691581452       -0.9079080377
 H         -2.6032887569       -4.1921637517        0.7501320623
 H          0.1534101635       -4.8535614276       -0.5190837892
 H         -0.1131960078       -4.1766875567        1.1392896232
 H         -1.0016708874       -2.8342359969       -1.5139762627
