  62
        -98.94275035
 C          2.4249091434        0.8835051568        0.5183749838
 C          2.4952525745       -0.1664250178       -0.4292422089
 C          3.5332194900       -1.1769282474       -0.1833420229
 C          4.3178682335       -1.0854071927        0.9051167486
 C          5.3995714745       -2.0523592471        1.3035812060
 C          6.7476024939       -1.8010683250        0.6140623787
 C          6.8010261242       -2.1772142391       -0.8672043593
 H          7.8512175638       -2.1562866002       -1.1651665787
 H          6.4472585747       -3.2008355858       -0.9940675774
 C          6.0085650308       -1.2386137139       -1.7877606471
 H          5.7972371534       -0.3048674428       -1.2615151711
 H          6.6166464509       -0.9838894219       -2.6587746695
 C          4.6943835718       -1.8213208578       -2.3077647187
 H          4.9027520884       -2.6816606229       -2.9477031431
 H          4.2000151585       -1.0605425026       -2.9172743389
 C          3.7170033165       -2.2558978566       -1.2077501979
 H          4.0661230312       -3.1739501600       -0.7358275320
 H          2.7442296611       -2.4457112852       -1.6678762397
 H          7.4990506626       -2.3911069798        1.1437678870
 H          7.0092934077       -0.7470163827        0.7320865934
 H          5.5373047792       -1.9367328804        2.3807755529
 H          5.0713964984       -3.0725818293        1.1028376601
 O          4.1968369252       -0.0773747924        1.8094639963
 C          3.2642850089        0.9298444627        1.6346033174
 O          3.2769953235        1.7990763322        2.5292672103
 O          1.7426916520       -0.2676942531       -1.4332599289
 C          1.4038068448        2.0033160041        0.3894685117
 C          0.0313939907        1.4394808101        0.6686243509
 C         -0.3927537633        1.3109406249        1.9883737743
 C         -1.6300613199        0.7697848857        2.2822366222
 C         -2.4669250487        0.3364950403        1.2681945169
 C         -2.0512176325        0.4553766516       -0.0506752175
 C         -0.8131538338        1.0135132055       -0.3442899014
 H         -0.4957662681        1.0868908117       -1.3724170970
 N         -2.8811531994       -0.0087395364       -1.0837418352
 S         -4.4975767039        0.4301128646       -1.0901017659
 O         -4.9159332314        0.3192342040       -2.4705888800
 O         -4.7019494549        1.7139618851       -0.4597743063
 C         -5.2941500214       -0.8485401581       -0.1404360573
 C         -6.1285790285       -0.5094871741        0.9065030850
 C         -6.7505583106       -1.5204477691        1.6227019354
 C         -6.5290111768       -2.8454140293        1.2801460380
 C         -5.6894701792       -3.1692366081        0.2245630036
 C         -5.0656611674       -2.1634239863       -0.4960042758
 H         -4.4075424425       -2.3736363936       -1.3226625561
 H         -5.5187469591       -4.2008673866       -0.0381885024
 H         -7.0130520144       -3.6307086654        1.8390422646
 H         -7.4033501971       -1.2708364576        2.4436901712
 H         -6.2660357856        0.5341209896        1.1408460781
 H         -2.4711318051        0.0693604726       -2.0028294087
 H         -3.4319881167       -0.0891456273        1.4900380041
 H         -1.9466342622        0.6808935477        3.3103940466
 H          0.2672702130        1.6358332978        2.7809525790
 H          1.6412269004        2.7176129442        1.1891477344
 C          1.5093454171        2.7164604070       -0.9427589459
 C          0.8163167240        4.0325636099       -1.1232951361
 C          2.3114649183        3.9777554507       -1.0370864175
 H          2.8868100233        4.1566542208       -1.9331403831
 H          2.7848675088        4.3385656096       -0.1355272725
 H          0.3625995452        4.2520461986       -2.0779310883
 H          0.2724195496        4.4285191830       -0.2787717155
 H          1.5482442301        2.0445039327       -1.7908025682
