  62
        -98.93903119
 C         -2.4658836495       -1.1936295704       -0.0242675401
 C         -3.0726097798       -0.3050512603        0.8923921197
 C         -3.6246661399        0.9444844795        0.3396123594
 C         -3.5123484696        1.1697255794       -0.9827548706
 C         -3.9289431496        2.4127002692       -1.7174127808
 C         -2.8936121498        3.5476019294       -1.5637057208
 C         -2.1742113201        3.5972137396       -0.2149274506
 H         -1.7502626400        2.6131168697       -0.0000608204
 H         -1.3284606501        4.2843628397       -0.3102804706
 C         -3.0250911304        4.0646499897        0.9661458691
 H         -3.2311056205        5.1312563197        0.8463745090
 H         -2.4289162605        3.9421368599        1.8742036993
 C         -4.3629407303        3.3516176696        1.1528919690
 H         -5.0265581102        3.5943195994        0.3272376088
 H         -4.8254199105        3.7588210896        2.0570025088
 C         -4.2862226902        1.8387986296        1.3589377892
 H         -3.7619414103        1.6353747998        2.2991101893
 H         -5.3069618501        1.4618379295        1.4983844491
 H         -2.1274268096        3.4057697994       -2.3293582006
 H         -3.3859226599        4.5028472693       -1.7503475510
 H         -4.0060836294        2.1526435591       -2.7747639908
 H         -4.9128873697        2.7220828892       -1.3758887610
 O         -2.9132641794        0.2910088193       -1.8311740803
 C         -2.3574420593       -0.8946366305       -1.3825229001
 O         -1.8176206090       -1.5780845806       -2.2720325799
 O         -3.1299477400       -0.5341796102        2.1327374997
 C         -1.8131068995       -2.4594737802        0.5067457802
 C         -0.3198346095       -2.3152295800        0.3397168805
 C          0.4739894308       -3.1941131000       -0.3831915192
 C          1.8271777008       -2.9443086199       -0.5420809790
 C          2.4150803405       -1.8229283798        0.0135751110
 C          1.6304530503       -0.9421634898        0.7473326007
 C          0.2802688603       -1.1984805499        0.9108711705
 H         -0.3314083999       -0.5064928799        1.4777482703
 N          2.2192750400        0.2112324104        1.3106932807
 S          2.8329323201        1.3192378203        0.1990488906
 O          2.8081338498        2.5964923504        0.8791536105
 O          2.1297032504        1.2476197201       -1.0617756395
 C          4.5234516402        0.8023838605       -0.0067569990
 C          5.3418755700        0.8005584408        1.1060578012
 C          6.6602295201        0.3979233809        0.9655651115
 C          7.1352697704        0.0089589808       -0.2783209884
 C          6.3013770806        0.0193761105       -1.3860335085
 C          4.9807230005        0.4196797704       -1.2521791088
 H          4.2925440807        0.4378104102       -2.0823298090
 H          6.6720130308       -0.2835030595       -2.3521180784
 H          8.1616971104       -0.3044792391       -0.3854670281
 H          7.3117760299        0.3883424711        1.8243737416
 H          4.9324790698        1.1151210708        2.0514033411
 H          1.5988728799        0.6927095804        1.9475350805
 H          3.4658828305       -1.6214137596       -0.1171349089
 H          2.4313123910       -3.6318394699       -1.1140640688
 H          0.0311390210       -4.0652546402       -0.8368016292
 H         -2.0369556297       -2.4735445301        1.5835031402
 C         -2.3928373492       -3.7019169004       -0.1307256097
 C         -2.2886248292       -5.0192235503        0.5765770005
 C         -3.6131954392       -4.3265826204        0.4739950101
 H         -4.3622218091       -4.7364654906       -0.1866396300
 H         -4.0206535295       -3.8648911304        1.3616253000
 H         -2.1295630989       -5.9094420603       -0.0125814594
 H         -1.7964997793       -5.0316027301        1.5372079306
 H         -2.3210312690       -3.6915787805       -1.2118647297
