  62
        -98.92897441
 C          2.6038156353        0.9671925045        0.6836270393
 C          2.9180101419       -0.3217526261        1.1811861061
 C          4.2553984002       -0.8562200534        0.8751322335
 C          5.1049912740       -0.1147084339        0.1403893314
 C          6.5344356508       -0.3666915381       -0.2923495558
 C          7.1551841225       -1.7551509177       -0.1646339880
 C          6.5602426585       -2.8085474833       -1.0988066058
 H          6.8540246345       -2.5682922550       -2.1237658656
 H          6.9978336653       -3.7767699106       -0.8461012657
 C          5.0385083791       -2.9289918339       -1.0738624397
 H          4.5898639804       -1.9920994532       -1.4108287114
 H          4.7521694538       -3.6990137692       -1.7955024116
 C          4.4339022516       -3.3107514042        0.2757239861
 H          4.8949172192       -4.2318172814        0.6377931119
 H          3.3706002247       -3.5087912470        0.1150138569
 C          4.5435698269       -2.2420345384        1.3765262764
 H          5.5125385192       -2.2794145629        1.8685682515
 H          3.7828216889       -2.4573540364        2.1325439016
 H          7.1141106836       -2.0918755914        0.8670071844
 H          8.2128685495       -1.6479763601       -0.4202931425
 H          6.5914057467       -0.0431548270       -1.3365783450
 H          7.1450294100        0.3395774715        0.2811287719
 O          4.7588263501        1.1213269884       -0.3206017425
 C          3.5148956242        1.6918945890       -0.0833887015
 O          3.3769799276        2.8138211010       -0.6024546600
 O          2.1110583449       -0.9976792667        1.8754591574
 C          1.2237833452        1.5037488673        1.0167312116
 C          0.2266008936        1.1232469307       -0.0483079099
 C          0.4735790580        1.3779580995       -1.3934627967
 C         -0.4583706358        1.0281757365       -2.3538410595
 C         -1.6460014569        0.4130585139       -1.9981632976
 C         -1.9006243424        0.1490492702       -0.6590599307
 C         -0.9668268437        0.5110322838        0.3048967060
 H         -1.1620792915        0.2946722632        1.3467251267
 N         -3.0914036382       -0.5027882899       -0.2868080940
 S         -4.5342472508        0.0663231286       -0.9596542073
 O         -4.6260778879       -0.4078954044       -2.3169974086
 O         -4.6309873512        1.4983444426       -0.7812929155
 C         -5.7293824142       -0.7745785428        0.0585877346
 C         -6.3338258420       -0.0978499353        1.1006758398
 C         -7.2425124788       -0.7735007853        1.9001701849
 C         -7.5265411852       -2.1069477796        1.6468449080
 C         -6.9114366206       -2.7724603155        0.5965834407
 C         -6.0030048430       -2.1028581558       -0.2073543188
 H         -5.5070628789       -2.5762125101       -1.0385284350
 H         -7.1370193159       -3.8085453421        0.4020690741
 H         -8.2336972025       -2.6303663028        2.2707712385
 H         -7.7245716332       -0.2584992195        2.7155231462
 H         -6.0887061753        0.9407194319        1.2556279787
 H         -3.1791408249       -0.5787950640        0.7180206258
 H         -2.3785979957        0.1404021385       -2.7402488361
 H         -0.2576551544        1.2356098009       -3.3945784895
 H          1.3990512785        1.8574284620       -1.6760566722
 H          0.9358598649        0.9726228351        1.9382098091
 C          1.2131327145        2.9918997602        1.3356347299
 C          0.6219741145        4.0338956775        0.4396663030
 C         -0.0705256355        3.6692355300        1.7163423018
 H         -0.0626914471        4.3750958259        2.5328784238
 H         -0.9802718905        3.0924277816        1.6373607778
 H          1.1333199448        4.9818669305        0.3727875844
 H          0.1748606663        3.7183859674       -0.4898084741
 H          2.0992209041        3.2884656860        1.8879503250
