  62
        -98.94140120
 C          1.6622040806        1.3377296133        0.3074076066
 C          1.3387564427        0.2649662420       -0.5549461246
 C          2.0446707280       -1.0050631525       -0.3170095029
 C          2.9094500992       -1.0890068243        0.7082692576
 C          3.7549288559       -2.2667809366        1.1093391612
 C          5.1344540609       -2.2138121510        0.4302014518
 C          5.2026765033       -2.8753978076       -0.9453882993
 H          6.1918454064       -2.6645732786       -1.3581479390
 H          5.1198731973       -3.9576871358       -0.8268418344
 C          4.1423731693       -2.4090414595       -1.9454805911
 H          4.4990146357       -2.6492567993       -2.9487505866
 H          4.0377383394       -1.3241247763       -1.8885067235
 C          2.7743122176       -3.0742541352       -1.7305489275
 H          2.8828854881       -3.9064499474       -1.0356094225
 H          2.4261338942       -3.5020618380       -2.6730435590
 C          1.6685165746       -2.1312737471       -1.2401194543
 H          1.2021446934       -1.6415152941       -2.1012826525
 H          0.8786971392       -2.7125067145       -0.7496558171
 H          5.8613015272       -2.7067715389        1.0789997881
 H          5.4273352122       -1.1638741655        0.3495235774
 H          3.2410468946       -3.1988362652        0.8931321065
 H          3.8948589624       -2.1904211386        2.1900359023
 O          3.1751645617       -0.0351509173        1.5320652027
 C          2.5512584668        1.1871787360        1.3681273683
 O          2.8613596780        2.0468513175        2.2206640725
 O          0.5003625328        0.3645961234       -1.4890970881
 C          0.9494797480        2.6703238389        0.1511499436
 C         -0.5400283179        2.4314336652        0.1947105288
 C         -1.4396700094        2.9946457718       -0.7009486471
 C         -2.7824432254        2.6593993979       -0.6563130808
 C         -3.2513137112        1.7407037016        0.2651326345
 C         -2.3628950757        1.1933408334        1.1803636949
 C         -1.0298843177        1.5608471643        1.1612235452
 H         -0.3448192918        1.1149167428        1.8730210277
 N         -2.8308943201        0.1768290105        2.0668605522
 S         -2.4348282179       -1.3477613427        1.4453590240
 O         -3.0391052921       -2.3066817039        2.3475837637
 O         -1.0045753684       -1.4926217505        1.2700381698
 C         -3.2826447474       -1.3467504101       -0.1149903136
 C         -2.6174606924       -0.9406237783       -1.2547715921
 C         -3.3206173045       -0.8915973947       -2.4490411062
 C         -4.6614544438       -1.2422130362       -2.4814796049
 C         -5.3125834049       -1.6476178759       -1.3256627713
 C         -4.6188456112       -1.6981279705       -0.1278125582
 H         -5.0778039042       -2.0060218290        0.7973231186
 H         -6.3555141313       -1.9192893168       -1.3538324097
 H         -5.2019484772       -1.1976279166       -3.4139307873
 H         -2.8117119905       -0.5708310624       -3.3437277827
 H         -1.5755245793       -0.6619399493       -1.1990799015
 H         -2.4151074231        0.2457088031        2.9873514076
 H         -4.2855835987        1.4385688139        0.2844480011
 H         -3.4664561044        3.0996760296       -1.3649439177
 H         -1.0837073292        3.6839171999       -1.4491061718
 H          1.2367170667        3.2767907577        1.0227652782
 C          1.4107394689        3.3700932681       -1.1104038439
 C          1.4107097050        4.8664877121       -1.1902995625
 C          2.7066896570        4.1213537724       -1.0878574712
 H          3.3463763049        4.0722599413       -1.9561655966
 H          3.2449748211        4.1500916615       -0.1513245864
 H          1.1644910661        5.3327506560       -2.1322228523
 H          1.0732681527        5.4141062780       -0.3234158353
 H          1.1744984430        2.8065181169       -2.0056381279
