  62
        -98.94058964
 C         -2.6424921566       -1.2733148763       -0.2863894173
 C         -2.2951057516       -0.0790608952       -0.9628802272
 C         -3.3567985430        0.9342720608       -1.0563845203
 C         -4.5652648936        0.6775863236       -0.5236589497
 C         -5.7163872752        1.6401188275       -0.5002998335
 C         -5.7061943274        2.4844556461        0.7816493093
 C         -4.3495565976        3.1164028411        1.0941196025
 H         -4.4694607521        3.7133462681        2.0008990481
 H         -3.6301098335        2.3266798944        1.3243761503
 C         -3.7873465208        3.9998584693       -0.0283204986
 H         -3.4019608836        4.9218167734        0.4121562855
 H         -4.5866589167        4.2782838485       -0.7161457987
 C         -2.6373665998        3.3700574666       -0.8168597415
 H         -2.1774998384        4.1513791019       -1.4281235172
 H         -1.8722651775        3.0065429053       -0.1249767946
 C         -3.0235186393        2.2211652388       -1.7571972321
 H         -3.8470579115        2.5346392106       -2.4019632829
 H         -2.1558429621        2.0032296098       -2.3867197283
 H         -5.9858704949        1.8435320000        1.6209289348
 H         -6.4604251411        3.2675323225        0.6857764909
 H         -5.6616175083        2.2861723791       -1.3741489880
 H         -6.6442421270        1.0671163101       -0.5396547657
 O         -4.8641842530       -0.4865438710        0.1072684132
 C         -3.9104729031       -1.4781299351        0.2599592912
 O         -4.3071322784       -2.4810922083        0.8868011502
 H          0.9980197684       -1.7828670972       -0.7598387472
 C          0.7693455962       -1.5720516426        0.2727081425
 C         -0.4976522324       -1.8335102406        0.7654209172
 C         -0.7720739245       -1.5293820167        2.0967204192
 C          0.1996813822       -0.9795190041        2.9099378246
 C          1.4657303809       -0.7181289131        2.4139355218
 C          1.7467705221       -1.0107239935        1.0871096425
 N          3.0336679891       -0.7645863888        0.5718723214
 S          3.7869324067        0.6845907601        1.0052319437
 O          4.3454391905        0.5292201402        2.3258192594
 O          2.8815506959        1.7985203490        0.8320932673
 C          5.0990691384        0.7475511283       -0.1986793501
 C          6.2953659674        0.1151087750        0.0813200933
 C          7.3034673960        0.1387431422       -0.8692835355
 C          7.0991302225        0.7893363515       -2.0769959838
 C          5.8931806034        1.4205421354       -2.3431915870
 C          4.8802104145        1.3997693679       -1.3973827645
 H          3.9297894802        1.8838051363       -1.5588301309
 H          5.7377266033        1.9276856004       -3.2818857508
 H          7.8851866353        0.8075105218       -2.8152770334
 H          8.2433058933       -0.3485386574       -0.6657849792
 H          6.4105624921       -0.3698854435        1.0364410974
 H          3.0608149430       -0.8866195725       -0.4318373319
 H          2.2297560457       -0.2770619902        3.0334680550
 H         -0.0281036282       -0.7468440759        3.9397173360
 H         -1.7655466105       -1.7214796013        2.4800365389
 C         -1.6151960386       -2.3767045498       -0.0917252616
 H         -2.1246452742       -3.1672075577        0.4761590873
 C         -1.1631348011       -2.9447015540       -1.4199433512
 C         -0.4923482823       -4.2839751894       -1.4623458735
 C         -1.8862076616       -4.1264684739       -1.9895009628
 H         -2.0429637192       -4.1682922816       -3.0569358213
 H         -2.7029060779       -4.5357181376       -1.4128802014
 H         -0.3602025552       -4.8035145468       -0.5254088809
 H          0.3083543604       -4.4394119992       -2.1692592732
 H         -0.8326893520       -2.1836698679       -2.1165746126
 O         -1.1629459374        0.1342919262       -1.4714077701
