  62
        -98.94589800
 C         -1.5727009317       -1.4715160412       -0.2075062215
 C         -1.5322349245       -0.0832719067       -0.4838797708
 C         -2.8376532402        0.5678848032       -0.6668293727
 C         -3.9605186922       -0.1673110405       -0.5730502184
 C         -5.3535661282        0.3805887598       -0.6826079669
 C         -5.9006081937        0.7869057752        0.6930789289
 C         -4.9429795368        1.6576137166        1.5067663170
 H         -5.4465000562        1.9050897475        2.4439248852
 H         -4.0579668250        1.0707396882        1.7631656036
 C         -4.5062707239        2.9503402280        0.8034704225
 H         -5.1933406063        3.1774959963       -0.0125045832
 H         -4.5679688816        3.7743490772        1.5175001354
 C         -3.0729146333        2.9286202151        0.2689600881
 H         -2.7995029246        3.9502633045       -0.0071788187
 H         -2.3909400640        2.6082839465        1.0605352347
 C         -2.8331516874        2.0417990960       -0.9590899689
 H         -3.5604186845        2.2839986447       -1.7366161097
 H         -1.8310779058        2.2635690976       -1.3373299916
 H         -6.8432045306        1.3177185018        0.5469003134
 H         -6.1078176064       -0.1207263734        1.2649382378
 H         -5.3487344288        1.2392774794       -1.3511281048
 H         -5.9963193786       -0.3937070241       -1.1048892204
 O         -3.9564830431       -1.5009834720       -0.3143653071
 C         -2.7666801272       -2.1841886644       -0.1158529257
 O         -2.9038172783       -3.3992542799        0.1346871226
 O         -0.4663969095        0.5764700428       -0.5722774117
 C         -0.2697227094       -2.2246088668       -0.0086204002
 C          0.5462572919       -1.5432653959        1.0619411992
 C         -0.0463102692       -1.2853006068        2.2961294742
 C          0.6527027465       -0.6343939586        3.2933215947
 C          1.9538177848       -0.2134768751        3.0779506172
 C          2.5577825804       -0.4771450032        1.8552134501
 C          1.8601265860       -1.1527959039        0.8626603990
 H          2.3615529393       -1.3620259952       -0.0663423540
 N          3.8773925391       -0.0764049991        1.6106673986
 S          4.3817486010        0.3373439891        0.0744509313
 O          4.5912007432       -0.8515080486       -0.7146058631
 O          5.5602966881        1.1483568799        0.3018849922
 C          3.0999783093        1.3430040140       -0.6502395241
 C          2.6528410684        2.4483978865        0.0440185248
 C          1.6873457536        3.2552081071       -0.5331701009
 C          1.1920427704        2.9484389942       -1.7899764103
 C          1.6519355983        1.8363194169       -2.4747657889
 C          2.6141846945        1.0232931781       -1.9003301732
 H          2.9934507491        0.1432694570       -2.3963186887
 H          1.2561869675        1.5932460007       -3.4484386621
 H          0.4373314216        3.5767625347       -2.2370447416
 H          1.3184313311        4.1165773507        0.0004897813
 H          3.0600600037        2.6666567780        1.0182106303
 H          4.2888128292        0.5131793729        2.3183660877
 H          2.4972070984        0.3097124128        3.8498506028
 H          0.1784503370       -0.4406796912        4.2438359455
 H         -1.0694914396       -1.5979518071        2.4578352256
 H         -0.5411969721       -3.2301615961        0.3441087874
 C          0.4579030360       -2.3475486008       -1.3311079792
 C          1.4081823890       -3.4809696673       -1.5691768820
 C          0.0854919577       -3.4503693008       -2.2735324119
 H          0.0680312604       -3.2408018082       -3.3325493451
 H         -0.6827736720       -4.1389002503       -1.9523634988
 H          2.3058447523       -3.2921230528       -2.1392379200
 H          1.5411246483       -4.1968168674       -0.7719342428
 H          0.6970064982       -1.3816839272       -1.7624421642
