  62
        -98.93338699
 C         -2.5667697381       -1.2910068262        0.2853186415
 C         -2.4352927793       -0.1785132514       -0.5787482514
 C         -3.6014561531        0.7276031534       -0.6798912977
 C         -4.7061070923        0.4546837601        0.0370834721
 C         -5.9849232249        1.2446257575        0.1193498657
 C         -5.8476406957        2.5008663223        0.9954511434
 C         -4.5645848037        3.2993947498        0.7793825407
 H         -4.5340037156        4.0887725877        1.5351215590
 H         -3.7040707099        2.6509319990        0.9548086415
 C         -4.4318418232        3.9597843027       -0.5907621884
 H         -5.2690462109        4.6454002708       -0.7400989323
 H         -3.5144463544        4.5537185516       -0.5769663500
 C         -4.3643383149        3.0096090887       -1.7878635811
 H         -4.0397515580        3.5976860782       -2.6514362722
 H         -5.3483493132        2.6195747459       -2.0338180083
 C         -3.3636821306        1.8673313589       -1.6413023582
 H         -3.2237007463        1.4007288602       -2.6241861267
 H         -2.3833879121        2.2807252970       -1.3779762952
 H         -5.8701733056        2.1857278398        2.0415525948
 H         -6.7128932597        3.1417360773        0.8179536154
 H         -6.7314838165        0.5869153802        0.5700910481
 H         -6.3297468593        1.5015137095       -0.8778486673
 O         -4.7826940278       -0.6243684311        0.8683505001
 C         -3.7312928160       -1.5034475050        1.0271486622
 O         -3.9475198853       -2.4202692909        1.8454247245
 O         -1.4007641242        0.0727917239       -1.2488461300
 C         -1.4366325922       -2.2822933091        0.5091525845
 C         -0.1451278761       -1.5414442218        0.7509333624
 C          0.0111638108       -0.8408861889        1.9436821030
 C          1.1704357994       -0.1348268934        2.2013452381
 C          2.1963665342       -0.1056709357        1.2728324347
 C          2.0503776087       -0.7996111058        0.0797603238
 C          0.8890975623       -1.5209610444       -0.1700722461
 H          0.7793007056       -2.0386532512       -1.1102606233
 N          3.0680964160       -0.7488919002       -0.8825901794
 S          4.6725667654       -0.8543264663       -0.4297246438
 O          5.3705040501       -1.2905582026       -1.6195924960
 O          4.8415928991       -1.6758950058        0.7468078462
 C          5.1335851103        0.8279654277       -0.0706791707
 C          5.7962497630        1.1227841684        1.1046127589
 C          6.1589353628        2.4363837193        1.3588250490
 C          5.8553413373        3.4265156117        0.4372093199
 C          5.1916788817        3.1135297588       -0.7397913891
 C          4.8272611514        1.8022745065       -1.0002917629
 H          4.3093484128        1.5206733923       -1.9020607112
 H          4.9555991019        3.8863274234       -1.4536207946
 H          6.1366141443        4.4484033064        0.6373055808
 H          6.6747578731        2.6817532324        2.2733017128
 H          6.0052390509        0.3217244478        1.7957849133
 H          2.8717570690       -1.2606392556       -1.7292518068
 H          3.1013054604        0.4471103725        1.4654112846
 H          1.2765181604        0.4033471875        3.1311925252
 H         -0.7952615209       -0.8534074389        2.6648628719
 H         -1.7028154819       -2.8043698245        1.4428982988
 C         -1.3203283707       -3.3558252921       -0.5627048275
 C         -2.5469125285       -3.9138196367       -1.2190372622
 C         -1.5804549641       -3.0906935515       -2.0138923438
 H         -0.9618452788       -3.5938498893       -2.7433281252
 H         -1.8656412742       -2.0908236181       -2.2994900244
 H         -2.5939673158       -4.9767062437       -1.4024338186
 H         -3.4970954324       -3.4742166010       -0.9522323510
 H         -0.5328282608       -4.0677095025       -0.3317469084
