  62
        -98.94415012
 C         -1.8294849494       -1.4313512513        0.4746218605
 C         -2.5023769001       -0.8249875515       -0.6148497393
 C         -3.3297180606        0.3465724280       -0.2837673189
 C         -3.3709105303        0.7937999379        0.9839254811
 C         -4.1449349108        1.9930832975        1.4482043715
 C         -3.2977573814        3.2710199179        1.3804365413
 C         -2.5839221720        3.4664120184        0.0431096810
 H         -2.0416604825        4.4126326587        0.1015492709
 H         -1.8459032617        2.6717419988       -0.0846539593
 C         -3.5140648525        3.4849486580       -1.1776039787
 H         -3.2255518231        4.3134916482       -1.8277092687
 H         -4.5414860924        3.6672584874       -0.8604022783
 C         -3.4635846121        2.2128151881       -2.0255922987
 H         -2.4253043021        1.9706160286       -2.2652636291
 H         -3.9802847826        2.4117658479       -2.9682209385
 C         -4.1151430013        0.9717985377       -1.4027519386
 H         -5.1271155013        1.2144782472       -1.0715054182
 H         -4.1834442412        0.2075644177       -2.1823765286
 H         -3.9470213318        4.1257139476        1.5790714415
 H         -2.5442504111        3.2277688983        2.1704659410
 H         -5.0350490410        2.1025861771        0.8315125718
 H         -4.4505916003        1.8243800373        2.4822830416
 O         -2.6662569297        0.2188648382        1.9926198809
 C         -1.8819567192       -0.8971913714        1.7643511005
 O         -1.2858638486       -1.3191361811        2.7774021703
 H          1.1615811012       -1.7848082198        1.6053849194
 C          1.3508584108       -1.8082947897        0.5398559293
 C          0.3498426708       -2.2612855001       -0.3108633204
 C          0.5875181003       -2.2609356399       -1.6795207905
 C          1.8050845099       -1.8274110393       -2.1756926609
 C          2.8057609900       -1.3915789888       -1.3256426412
 C          2.5726416504       -1.3782567490        0.0439185889
 N          3.5801534505       -0.9381935086        0.9218923086
 S          4.3760292597        0.4870966719        0.5592490384
 O          5.3418751394        0.2476067624       -0.4833717720
 O          4.9073335799        0.9550636821        1.8192816482
 C          3.1071197989        1.5922602713       -0.0307684811
 C          2.1502966190        2.0155244207        0.8704646792
 C          1.1358669484        2.8487290102        0.4296092197
 C          1.0911984778        3.2366647503       -0.9010200603
 C          2.0589017377        2.8029028008       -1.7933197207
 C          3.0783886182        1.9718047713       -1.3569253011
 H          3.8528720882        1.6166102918       -2.0166753514
 H          2.0207859571        3.1081076909       -2.8265299706
 H          0.2965058573        3.8814108699       -1.2419280300
 H          0.3831870985        3.1879803498        1.1237027999
 H          2.2154988695        1.6994800807        1.8997820392
 H          3.3045957809       -0.9570876288        1.8929634787
 H          3.7630248897       -1.0656627583       -1.6985694315
 H          1.9789655695       -1.8321668791       -3.2409165209
 H         -0.1903438898       -2.5794029503       -2.3535713302
 C         -0.9680735088       -2.6740055808        0.2987602901
 H         -0.7621129383       -3.0365295608        1.3151148800
 C         -1.6735906085       -3.7734797711       -0.4661918097
 C         -1.1168814778       -5.1632921908       -0.4143410600
 C         -2.3972741677       -4.8416185415        0.2947625505
 H         -3.3223073677       -5.2249391020       -0.1091204092
 H         -2.3838194774       -4.7861243416        1.3738876905
 H         -0.2325519575       -5.3243933604        0.1839678197
 H         -1.1608135878       -5.7706807008       -1.3051809500
 H         -2.1207839990       -3.4410219613       -1.3932462096
 O         -2.4389407503       -1.2333679014       -1.8024444793
