  62
        -98.94020018
 C         -2.4721478367       -1.0782245986        0.0994588564
 C         -2.7396172459       -0.0342634592       -0.8184093832
 C         -4.1551432572        0.3331753497       -0.9709672982
 C         -5.0903053349       -0.3394464045       -0.2753148255
 C         -6.5601804321       -0.0368912005       -0.2983329793
 C         -6.9392827383        0.9583125313        0.8073209136
 C         -6.0422382448        2.1951037225        0.8580964778
 H         -6.4213847016        2.8394309646        1.6542712915
 H         -5.0322338558        1.8919603147        1.1435725399
 C         -5.9791892668        2.9875964095       -0.4550252518
 H         -6.0745108747        4.0512010563       -0.2267591643
 H         -6.8216147484        2.7162166503       -1.0921567187
 C         -4.6761524174        2.8155496954       -1.2381495848
 H         -4.6473551206        3.5774467702       -2.0216411966
 H         -3.8236854863        2.9935975887       -0.5775488664
 C         -4.4802977774        1.4542082496       -1.9175526433
 H         -5.3599316413        1.2111254861       -2.5170268357
 H         -3.6192212348        1.5378311874       -2.5871268213
 H         -7.9759811855        1.2642289787        0.6557962568
 H         -6.8727073070        0.4471313004        1.7705064242
 H         -7.1050086741       -0.9688294932       -0.1387129381
 H         -6.8272819892        0.3667586202       -1.2728988607
 O         -4.7946682587       -1.3539675049        0.5777891337
 C         -3.4826916985       -1.7393326953        0.7966269818
 O         -3.3477337558       -2.6648831404        1.6229698389
 O         -1.8454910763        0.5610754981       -1.4747881408
 C         -1.0424608289       -1.5262678568        0.3351166735
 C         -0.1769283772       -0.3658387421        0.7631995677
 C         -0.6556249847        0.5274459843        1.7185826699
 C          0.1201581469        1.5863870607        2.1479616825
 C          1.4004069960        1.7653949110        1.6536817875
 C          1.8908782615        0.8761457680        0.7059835945
 C          1.1019973128       -0.1776479140        0.2645110057
 H          1.5106084426       -0.8494378939       -0.4715594157
 N          3.1802213966        1.0322769615        0.1721295020
 S          4.0732154569       -0.3606202960       -0.1674682213
 O          3.7302663695       -0.8285421218       -1.4866096730
 O          3.9272969434       -1.3147135360        0.9085194942
 C          5.7277953277        0.3064107322       -0.1775861923
 C          6.2018650297        0.9025394503       -1.3309361786
 C          7.4775151425        1.4441799698       -1.3290580952
 C          8.2533421723        1.3820005873       -0.1809635399
 C          7.7647344898        0.7792705981        0.9684887030
 C          6.4895079832        0.2364185181        0.9738033154
 H          6.0721534802       -0.2508637817        1.8403496048
 H          8.3714664186        0.7293207142        1.8582587005
 H          9.2463370199        1.8029795888       -0.1830376296
 H          7.8620838477        1.9106001537       -2.2216616632
 H          5.5668821432        0.9189078375       -2.2014245732
 H          3.7308133042        1.7214532058        0.6656337753
 H          2.0093193314        2.5892510649        1.9937998410
 H         -0.2705119728        2.2741650607        2.8831316941
 H         -1.6507544708        0.3803319945        2.1173463036
 H         -1.0789963185       -2.2442849807        1.1688513641
 C         -0.5166098968       -2.2403543972       -0.8933220553
 C          0.5205650501       -3.3133385740       -0.7604938655
 C         -0.8888862242       -3.6734300406       -1.1201333512
 H         -1.0977975428       -3.9992598196       -2.1279716131
 H         -1.5033663698       -4.1488801927       -0.3692683318
 H          1.2860873718       -3.3853169636       -1.5192194283
 H          0.8714761991       -3.5496572595        0.2332730332
 H         -0.4683979507       -1.5915660672       -1.7612445984
