  62
        -98.93954699
 C          1.4956833241        1.1268095759        0.1537602340
 C          2.5413576712        0.6253112475        0.9657187372
 C          3.0709161848       -0.7031507238        0.6194635081
 C          2.5125939305       -1.3891278981       -0.3922001217
 C          2.8498389604       -2.7728953239       -0.8890991810
 C          4.3339854368       -3.1492533063       -0.9912033319
 C          5.2708906764       -1.9923985175       -1.3691294309
 H          5.8937600905       -2.3006921944       -2.2107352109
 H          4.6864114449       -1.1301451712       -1.6944245889
 C          6.1988824146       -1.5774923058       -0.2249836380
 H          6.5840438214       -2.4785160228        0.2571856858
 H          7.0529526423       -1.0391845176       -0.6427835331
 C          5.5697279192       -0.6740990843        0.8350723510
 H          5.3889187793        0.3196824190        0.4161777822
 H          6.2922311273       -0.5522241213        1.6455771561
 C          4.2435526385       -1.1749489469        1.4305944823
 H          4.2440136356       -2.2563150487        1.5458006969
 H          4.1256710567       -0.7217888294        2.4189986076
 H          4.6654786680       -3.5823556006       -0.0485673024
 H          4.4071524620       -3.9382990444       -1.7416065291
 H          2.3362775670       -3.4932776311       -0.2449144809
 H          2.3857949314       -2.8409132504       -1.8762361879
 O          1.4769657459       -0.8897298003       -1.1204824451
 C          0.9329480631        0.3576923653       -0.8635124968
 O         -0.0204276608        0.6539223814       -1.6091960090
 H         -0.5190647223        0.6612363380        1.7996520395
 C         -1.1575835097        1.3639847733        1.2830000214
 C         -0.5930920172        2.3970220702        0.5434980361
 C         -1.4414557043        3.2799988242       -0.1115737108
 C         -2.8150247061        3.1199870572       -0.0387217773
 C         -3.3694271166        2.0659960323        0.6630851131
 C         -2.5278247464        1.1764095625        1.3208909517
 N         -3.0322801997        0.0554405184        2.0182765076
 S         -2.6928786776       -1.4365372038        1.3277008824
 O         -3.3312279307       -2.4080236820        2.1912439549
 O         -1.2715663692       -1.5810749678        1.1472070672
 C         -3.5510697543       -1.3886484095       -0.2359547585
 C         -4.8141919494       -1.9459545330       -0.3069161964
 C         -5.5287545473       -1.8435964359       -1.4888975112
 C         -4.9747722488       -1.1772815681       -2.5720327839
 C         -3.7088750404       -0.6201240356       -2.4819252255
 C         -2.9838996424       -0.7219940509       -1.3034237167
 H         -1.9945758757       -0.2986956592       -1.2166297018
 H         -3.2713910110       -0.0998593135       -3.3188940236
 H         -5.5314559240       -1.0917931525       -3.4919369640
 H         -6.5125487575       -2.2787155862       -1.5607351670
 H         -5.2012282776       -2.4553474204        0.5610052196
 H         -4.0261044718        0.1082561755        2.2000591775
 H         -4.4393196940        1.9244402191        0.6974467905
 H         -3.4607473599        3.8142445251       -0.5542542450
 H         -1.0291763775        4.0845906438       -0.6977637285
 C          0.9123477863        2.4837484224        0.5046260228
 H          1.2649619799        2.6714729972        1.5335606429
 C          1.4348253281        3.6304208313       -0.3487900538
 C          2.7399929338        3.5214937753       -1.0774802029
 C          1.4548271547        3.5607506764       -1.8455093216
 H          1.2212525652        4.4549561541       -2.4045882037
 H          1.1013549517        2.6507118808       -2.3039076607
 H          3.3859201819        4.3863589000       -1.1034648814
 H          3.2707923615        2.5821936870       -1.0167632422
 H          1.2162640342        4.5983094703        0.0916193834
 O          3.0060939976        1.2585329695        1.9524608273
