  62
        -98.93847641
 C         -1.5013004256       -1.5455395824        0.5054420791
 C         -2.3786794618       -1.0962104815       -0.5092732574
 C         -3.2841465063        0.0154944028       -0.1505642951
 C         -3.1628757349        0.6127604913        1.0486245135
 C         -3.9492203332        1.7317880155        1.7004220685
 C         -4.9705780959        2.5371743322        0.9022350828
 C         -4.3648525453        3.4697138540       -0.1470633259
 H         -5.1769690265        3.8897905693       -0.7440770343
 H         -3.8718529409        4.2964129293        0.3708688421
 C         -3.3364957137        2.8323285328       -1.0777611624
 H         -2.4966571874        2.4566753912       -0.4912436961
 H         -2.9542951449        3.6154131908       -1.7381030627
 C         -3.8599780454        1.7014107496       -1.9588354457
 H         -3.0655826566        1.4341504690       -2.6607028865
 H         -4.7163615498        2.0506201897       -2.5391706759
 C         -4.2668912399        0.4213766488       -1.2121946925
 H         -5.2667057126        0.5106334006       -0.7940603785
 H         -4.2872832417       -0.3966575553       -1.9380532254
 H         -5.5105352392        3.1578291650        1.6224909857
 H         -5.7020583999        1.8725131157        0.4520523972
 H         -3.2087375783        2.4159659894        2.1277666645
 H         -4.4619906493        1.2691629613        2.5511243779
 O         -2.2210910670        0.2118130029        1.9552608687
 C         -1.3944217275       -0.8688204620        1.7218907663
 O         -0.6102771245       -1.1233708582        2.6592700143
 O         -2.4394811675       -1.5937806443       -1.6623604771
 C         -0.5449611919       -2.7158283941        0.3173992831
 C          0.6927118780       -2.1731850086       -0.3537275685
 C          0.7820881670       -1.9847501174       -1.7281506354
 C          1.9040833026       -1.3913528912       -2.2799187978
 C          2.9493386292       -0.9646275010       -1.4789214104
 C          2.8626707723       -1.1421613579       -0.1044957589
 C          1.7461055584       -1.7519709457        0.4465051841
 H          1.6711871590       -1.8682021426        1.5195713220
 N          3.8983308862       -0.6691503412        0.7257299193
 S          4.3395580008        0.9290718615        0.4904610308
 O          5.3016738033        1.0059460917       -0.5805879554
 O          4.7987226783        1.3994233604        1.7786519056
 C          2.8433945945        1.7766569125        0.0069919969
 C          2.8242168169        2.4998874953       -1.1681580265
 C          1.6580722010        3.1501382368       -1.5377229912
 C          0.5328224069        3.0599672462       -0.7336192232
 C          0.5663460915        2.3251261328        0.4413268856
 C          1.7315098307        1.6791630351        0.8202767784
 H          1.7723754515        1.1044268374        1.7325109705
 H         -0.3095559240        2.2407464603        1.0664775810
 H         -0.3761923899        3.5631129150       -1.0228395101
 H          1.6273530012        3.7211873743       -2.4514961286
 H          3.7195147004        2.5357958797       -1.7672703714
 H          3.7325504496       -0.8458850350        1.7065281688
 H          3.8236072068       -0.4882188341       -1.8926736350
 H          1.9624064152       -1.2495372556       -3.3482142458
 H         -0.0447607976       -2.2758751974       -2.3558382222
 H         -0.2606405359       -3.0322533182        1.3302899661
 C         -1.1516864137       -3.9022570917       -0.3987630737
 C         -0.4470541203       -5.2223503017       -0.3237061391
 C         -1.7391918285       -5.0196106556        0.4076553702
 H         -2.6260476758       -5.5107533146        0.0363249552
 H         -1.7080555301       -4.9338972000        1.4844261118
 H         -0.4437478089       -5.8553839351       -1.1975519137
 H          0.4620232906       -5.2712383537        0.2571071943
 H         -1.6512887499       -3.6483683013       -1.3231567042
