  62
        -98.94608360
 C         -1.0028615284       -1.6300128445        0.6266273003
 C         -1.7829623887       -1.5247972502       -0.5498762991
 C         -2.8894717937       -0.5585691446       -0.4984458881
 C         -3.0825967891        0.1654467262        0.6190072921
 C         -4.1729742638        1.1807854218        0.8018485131
 C         -3.7149937568        2.5882516595        0.3977977831
 C         -3.0102885975        2.6439123762       -0.9570041174
 H         -2.7499291223        3.6868362648       -1.1464939374
 H         -2.0728947204        2.0858636913       -0.8956182182
 C         -3.8467357712        2.1094726707       -2.1279652369
 H         -4.9011933111        2.0854835661       -1.8500887162
 H         -3.7491027582        2.7975753803       -2.9701217969
 C         -3.4268286286        0.7281656286       -2.6335451575
 H         -2.3500831588        0.7168162731       -2.8215012983
 H         -3.9274206403        0.5496760314       -3.5890563772
 C         -3.7670487140       -0.4510599198       -1.7135188675
 H         -4.8201099936       -0.4042048544       -1.4281486867
 H         -3.6054887692       -1.3725516605       -2.2805091078
 H         -4.5879074835        3.2433289640        0.3838522638
 H         -3.0238313844        2.9542278758        1.1582120226
 H         -5.0345811458        0.8827441463        0.2072263937
 H         -4.4583147430        1.1890274731        1.8552919933
 O         -2.2802550488        0.0715131419        1.7109805615
 C         -1.2229519934       -0.8231327336        1.7420883906
 O         -0.5640843125       -0.8048531872        2.8025199501
 H          1.2933258483       -0.2836953062        0.3193577688
 C          1.6677440841       -1.0067599380       -0.3903424716
 C          1.1687253974       -2.3035877555       -0.3622572315
 C          1.6559230520       -3.2241518278       -1.2798500320
 C          2.6137288633       -2.8460366526       -2.2052067126
 C          3.1240984199       -1.5615638252       -2.2141020128
 C          2.6501907253       -0.6341343329       -1.2918398422
 N          3.1477642221        0.6770269645       -1.2671973824
 S          3.3985903272        1.4626679329        0.1913152876
 O          4.4725855118        2.3937513875       -0.0866136730
 O          3.6298499632        0.5278005816        1.2661725873
 C          1.9107035822        2.4006456506        0.4628348689
 C          1.0806059815        2.1126364446        1.5268909494
 C         -0.0419738542        2.8998638504        1.7328018004
 C         -0.3095679094        3.9589881619        0.8799433608
 C          0.5303347912        4.2312339478       -0.1896608298
 C          1.6512797770        3.4468584821       -0.4018323907
 H          2.3393193074        3.6348137987       -1.2091774812
 H          0.3156959949        5.0535295790       -0.8528685994
 H         -1.1750012561        4.5794216963        1.0521760116
 H         -0.6968696748        2.6703156136        2.5591675309
 H          1.3115861278        1.2833601033        2.1790924091
 H          3.8967588225        0.8569471008       -1.9198852729
 H          3.8821186908       -1.2736830789       -2.9267281133
 H          2.9773947690       -3.5670242943       -2.9216636430
 H          1.2827911068       -4.2348489159       -1.2768107019
 C          0.1364277865       -2.6312266204        0.6892733192
 H          0.6117439780       -2.4920234430        1.6720948089
 C         -0.3998685908       -4.0447306776        0.6034476194
 C          0.3633048138       -5.1771963116        1.2196870586
 C         -0.9105035733       -4.7012147252        1.8493292296
 H         -1.7871042466       -5.3277211207        1.7806082301
 H         -0.8488128797       -4.1366896657        2.7687105297
 H          0.3602202285       -6.1346497815        0.7210079184
 H          1.2926487554       -4.9413006065        1.7162816879
 H         -0.9413256125       -4.2308431846       -0.3166889503
 O         -1.5784561730       -2.2114393211       -1.5845328794
