  62
        -98.94530933
 C          2.1350604627        0.9007681110        0.0715983623
 C          2.8427739463        0.2206067278        1.0904576229
 C          3.5603967433       -0.9922723220        0.6763122879
 C          3.4671702720       -1.4068056769       -0.6006333119
 C          4.1820838546       -2.5977900667       -1.1688256124
 C          5.5472692901       -2.2018203711       -1.7487852561
 C          6.3969076099       -1.3524973806       -0.8033999968
 H          7.3475766476       -1.1604751994       -1.3053016739
 H          5.9090370007       -0.3860359958       -0.6577693784
 C          6.6616721349       -1.9972492901        0.5643079762
 H          7.7169730481       -1.8686031762        0.8135946301
 H          6.4696685564       -3.0695246214        0.5118716560
 C          5.8557899088       -1.3941498740        1.7162513879
 H          6.2737987672       -1.7663706773        2.6552811286
 H          5.9713868487       -0.3074276894        1.7142752253
 C          4.3565920590       -1.7188300870        1.7239339071
 H          4.2127210167       -2.7980238713        1.6383424979
 H          3.9510667286       -1.3938133276        2.6867468527
 H          5.3806839208       -1.6318714865       -2.6657346305
 H          6.0884289718       -3.1133705343       -2.0087725249
 H          4.3098425523       -3.3453510992       -0.3881353882
 H          3.5659917674       -3.0196190275       -1.9649457785
 O          2.7372803124       -0.7540362505       -1.5410677682
 C          2.0598405540        0.4180418217       -1.2353512223
 O          1.4421867782        0.9190404137       -2.1931401827
 H         -0.0957458958        0.1537265048        1.2918016406
 C         -0.6962260858        0.8416919531        0.7082203638
 C         -0.0931389057        1.9723283305        0.1696373590
 C         -0.8735665315        2.8452087204       -0.5757475952
 C         -2.2154726713        2.5776294168       -0.7874022620
 C         -2.8083420607        1.4471569676       -0.2567800280
 C         -2.0383996069        0.5708726531        0.4973997742
 N         -2.6348303422       -0.5767418812        1.0538103697
 S         -3.4626344267       -1.6015364910        0.0091379556
 O         -3.4291416792       -2.8986315383        0.6505675244
 O         -2.9347693770       -1.5348090384       -1.3340790855
 C         -5.1311463565       -0.9808268988        0.0465718409
 C         -5.7591212041       -0.8754395796        1.2723417370
 C         -7.0595567437       -0.3992180523        1.3184832443
 C         -7.7071978862       -0.0417639180        0.1450978750
 C         -7.0640967997       -0.1569645953       -1.0777802607
 C         -5.7625316378       -0.6315967948       -1.1309912683
 H         -5.2192800725       -0.7322304760       -2.0572335228
 H         -7.5688739761        0.1209960226       -1.9890559559
 H         -8.7191964245        0.3291833747        0.1838140069
 H         -7.5629063835       -0.3080665184        2.2674602775
 H         -5.2210913105       -1.1669813942        2.1587907928
 H         -2.0043974140       -1.1116971756        1.6344406780
 H         -3.8510009895        1.2328632705       -0.4255388274
 H         -2.8079964227        3.2601793556       -1.3772057464
 H         -0.4295385857        3.7289381716       -1.0030736007
 C          1.3812831412        2.1717383691        0.4217447925
 H          1.5272424681        2.3087336912        1.5036946308
 C          1.9715768864        3.3613543150       -0.3045386006
 C          1.8529742508        4.7356157117        0.2815545849
 C          3.1780577044        4.0363705680        0.2734267217
 H          3.9450018756        4.3870511249       -0.4007879352
 H          3.5614174495        3.6521040401        1.2075365957
 H          1.7119917221        5.5710436563       -0.3872749985
 H          1.3377869221        4.8328499060        1.2250402466
 H          1.9260654604        3.2551862223       -1.3825814147
 O          2.8666050429        0.6055913499        2.2914181768
