  62
        -98.94208371
 C          2.8030561991        0.9894302807        0.3526244991
 C          2.4138827188        0.3064419104       -0.8286895807
 C          2.8427906890       -1.0960505495       -0.9216747505
 C          3.6264335093       -1.6269050292        0.0331236594
 C          4.1077283295       -3.0504345092        0.0951389195
 C          3.0998982898       -3.9980969992        0.7618079100
 C          1.8556575896       -4.3176294695       -0.0694202496
 H          2.1601305494       -4.6732482596       -1.0542735896
 H          1.3381769999       -5.1396806994        0.4290737908
 C          0.8749088394       -3.1461520296       -0.2306684995
 H          1.0883389496       -2.3826389795        0.5229242203
 H         -0.1491684105       -3.4849981997       -0.0498918691
 C          0.8929531089       -2.4936255599       -1.6134408796
 H          0.5759835888       -3.2234282401       -2.3620706494
 H          0.1594107588       -1.6817248600       -1.6159376895
 C          2.2588087987       -1.9240407398       -2.0253653402
 H          2.9356457487       -2.7327156598       -2.3002100002
 H          2.1116245484       -1.2759654300       -2.8924206702
 H          2.7963159601       -3.5663955090        1.7187088900
 H          3.6194917100       -4.9359181291        0.9704869900
 H          4.3411545992       -3.4080966293       -0.9072611605
 H          5.0236245497       -3.0483271589        0.6897392692
 O          4.0726307496       -0.9031711390        1.0945288591
 C          3.6082137695        0.3854765810        1.3198861090
 O          3.9777186198        0.8779000113        2.4049930087
 H          0.5388139095        0.4892013207        1.5333266999
 C          0.0184696593        1.2317723605        0.9379217299
 C          0.7339530790        2.3068186905        0.4229592095
 C          0.0535953786        3.2437672902       -0.3413912505
 C         -1.2994375515        3.0905255300       -0.5949075800
 C         -1.9991627512        2.0043763600       -0.1032084496
 C         -1.3273838308        1.0609420403        0.6633388004
 N         -2.0204394705       -0.0624765997        1.1540799508
 S         -2.8310050208       -1.0133436100        0.0253596413
 O         -2.8247698704       -2.3494113899        0.5815560315
 O         -2.2827837312       -0.8611399802       -1.3003012289
 C         -4.4901537908       -0.3694832502        0.0797552017
 C         -5.1557110104       -0.3933684101        1.2898097519
 C         -6.4450971205        0.1095181898        1.3547678222
 C         -7.0443379909        0.6238574795        0.2143735623
 C         -6.3640662113        0.6380445893       -0.9935773979
 C         -5.0733181812        0.1367210595       -1.0648558182
 H         -4.5036730015        0.1307123593       -1.9807183284
 H         -6.8318352116        1.0376056591       -1.8790520679
 H         -8.0477674609        1.0157335794        0.2674440225
 H         -6.9772981502        0.0997913499        2.2922848424
 H         -4.6544076901       -0.8056195998        2.1495741218
 H         -1.4513049103       -0.6510819095        1.7459054608
 H         -3.0465577512        1.8688274199       -0.3192664292
 H         -1.8132508417        3.8230301198       -1.1986716200
 H          0.5867685084        4.0778879102       -0.7668478608
 C          2.2187659390        2.3492033007        0.7025758390
 H          2.3546099594        2.4424098509        1.7934886089
 C          2.9280196587        3.5399497807        0.0779948685
 C          4.3618789486        3.4440142108       -0.3482894119
 C          3.2823020582        3.5856965304       -1.3767117716
 H          3.1927863580        4.5289419103       -1.8956897417
 H          3.0234102681        2.7283471303       -1.9771667113
 H          5.0097198385        4.2867364409       -0.1585634823
 H          4.8510110387        2.4859472109       -0.2461417419
 H          2.6286164087        4.4767330707        0.5377923184
 O          1.7257015585        0.8168592002       -1.7477236005
