  62
        -98.94044065
 C         -2.4967271422       -1.2512926383        0.1092939395
 C         -3.4154772905       -0.6820083452        1.0308377871
 C         -4.4320018285        0.2142854120        0.4717113617
 C         -4.4647906347        0.4361003148       -0.8543995397
 C         -5.4584380497        1.2970069422       -1.5860127600
 C         -5.1070768937        2.7910865430       -1.5916972554
 C         -5.2973361399        3.5091700374       -0.2550226670
 H         -5.2281395141        4.5803266073       -0.4547003863
 H         -6.3015851031        3.3126479419        0.1215716619
 C         -4.2616423899        3.1390041387        0.8160191479
 H         -3.4023842469        2.6583874910        0.3421470958
 H         -3.8936559372        4.0483640874        1.2962704513
 C         -4.7909537286        2.2256647883        1.9217920759
 H         -5.5627527608        2.7484736410        2.4909083171
 H         -3.9661153050        1.9978124455        2.6016570788
 C         -5.3710029377        0.8971197101        1.4195479254
 H         -6.3368541886        1.0640170215        0.9430969052
 H         -5.5124895471        0.2374644342        2.2790404016
 H         -5.7483674571        3.2729776741       -2.3333222995
 H         -4.0723122290        2.9054263654       -1.9231901114
 H         -5.4749482161        0.9429499863       -2.6191180099
 H         -6.4502266573        1.1570388094       -1.1550101832
 O         -3.5775394143       -0.1364537158       -1.7087404496
 C         -2.5629814091       -0.9731741847       -1.2563226227
 O         -1.8186549150       -1.3819483976       -2.1687355950
 O         -3.3918492806       -0.9259255624        2.2661959518
 C         -1.4555190610       -2.1930103655        0.6879989102
 C         -0.1474556764       -1.4952178926        0.9592983571
 C          0.4890841438       -1.6231178388        2.1881530400
 C          1.7083167727       -1.0091885450        2.4174810643
 C          2.3165458117       -0.2576784368        1.4281466472
 C          1.6872985716       -0.1210080594        0.1976524287
 C          0.4641951861       -0.7347619595       -0.0280484668
 H         -0.0135042624       -0.6370172632       -0.9923508455
 N          2.3031894709        0.6409105365       -0.8165431212
 S          3.8190083167        0.1045596186       -1.3177105286
 O          3.9804801262        0.6064588185       -2.6645195003
 O          3.9532252245       -1.3234505761       -1.1416849383
 C          4.9495224629        0.9601798963       -0.2407018209
 C          4.9198517520        2.3411291039       -0.2311958959
 C          5.7971739588        3.0229479697        0.5968454516
 C          6.6859958290        2.3165841245        1.3939051309
 C          6.7059643984        0.9304504641        1.3695749842
 C          5.8299698766        0.2420118408        0.5445153871
 H          5.8040534174       -0.8348185415        0.4961328943
 H          7.3979724623        0.3834241424        1.9894800101
 H          7.3677129759        2.8500193364        2.0373396354
 H          5.7851803797        4.1007884612        0.6182321982
 H          4.2163904068        2.8501270697       -0.8689417535
 H          1.7085113501        0.7648455113       -1.6246717764
 H          3.2665217368        0.2216922150        1.5993711332
 H          2.1909528741       -1.1172752988        3.3766125936
 H          0.0175268177       -2.2031362412        2.9679054180
 H         -1.8729877249       -2.4976321472        1.6608356704
 C         -1.2777417311       -3.4588132541       -0.1419197190
 C         -0.0430200903       -3.7816708217       -0.9241074949
 C         -0.3545221832       -4.5443447185        0.3266513718
 H         -0.6763007901       -5.5711889596        0.2430026747
 H          0.2526967791       -4.3385233928        1.1951931698
 H         -0.1715985435       -4.2684927929       -1.8791662832
 H          0.7817410327       -3.0853589562       -0.9076396939
 H         -2.2151275669       -3.7799023524       -0.5859673282
