  62
        -98.94540268
 C          2.6432340287        1.0714545733        0.2770964039
 C          2.5456243774        0.3083961768       -0.9120820809
 C          3.1707898987       -1.0216841345       -0.8714189656
 C          3.7897351161       -1.4269240253        0.2523223043
 C          4.4143696256       -2.7772810768        0.4494377561
 C          3.4090970608       -3.7703228643        1.0495903805
 C          2.0599208052       -3.7968713784        0.3300938668
 H          1.4418179259       -4.5524269383        0.8206839425
 H          1.5547501216       -2.8373911839        0.4699408494
 C          2.1463732052       -4.1041766306       -1.1713877639
 H          1.3713743530       -4.8312256283       -1.4229374539
 H          3.1097977897       -4.5612803396       -1.4010699875
 C          1.9294256735       -2.8927072271       -2.0804000841
 H          1.7925072045       -3.2563421512       -3.1024520290
 H          1.0067039243       -2.3795157412       -1.7928492279
 C          3.0711457076       -1.8679735753       -2.1087312360
 H          4.0165561672       -2.3769715682       -2.3072810880
 H          2.8721974986       -1.1741947904       -2.9307110138
 H          3.2341511832       -3.4993397437        2.0934543677
 H          3.8522859127       -4.7673956634        1.0272384599
 H          4.7786749783       -3.1462995468       -0.5070769918
 H          5.2574450825       -2.6700923572        1.1339457641
 O          3.8708748967       -0.6613550274        1.3711412541
 C          3.2804983006        0.5918776699        1.4201024770
 O          3.3864580171        1.1682510837        2.5225325671
 H          0.3713867489        0.7067415045        1.5415284465
 C         -0.1765120284        1.3021867814        0.8195819271
 C          0.5014540807        2.2793101907        0.1001138108
 C         -0.2119161375        3.0368775693       -0.8182156882
 C         -1.5611729691        2.8012456435       -1.0218284135
 C         -2.2267822613        1.8168698680       -0.3151138409
 C         -1.5248343954        1.0610003070        0.6151421065
 N         -2.1959931865        0.0580549010        1.3450248052
 S         -2.8989276672       -1.1756993355        0.4395190747
 O         -2.9788699895       -2.3062038299        1.3397458010
 O         -2.1927263035       -1.3916250040       -0.8020565696
 C         -4.5413464638       -0.5687021375        0.1193193118
 C         -5.3387491039       -0.2522301702        1.2019322964
 C         -6.6183090861        0.2273660713        0.9723236937
 C         -7.0770514327        0.3780101018       -0.3280935799
 C         -6.2655599593        0.0513893195       -1.4038506985
 C         -4.9834883105       -0.4272042470       -1.1812582135
 H         -4.3129928985       -0.6859931659       -1.9852915635
 H         -6.6238514699        0.1688553575       -2.4139234158
 H         -8.0730073668        0.7525385843       -0.5042898092
 H         -7.2523251854        0.4823818691        1.8061240393
 H         -4.9438693154       -0.3877490190        2.1949168014
 H         -1.6253761019       -0.3458925471        2.0748648336
 H         -3.2749585988        1.6258481608       -0.4776126132
 H         -2.1012910756        3.3913574417       -1.7462876257
 H          0.2910777646        3.8019622712       -1.3861150611
 C          1.9817445349        2.4368576321        0.3532514596
 H          2.1174959125        2.7843803990        1.3879298868
 C          2.6622178224        3.4121529605       -0.5831778089
 C          2.6396658711        4.8805113933       -0.2853864687
 C          3.9100455024        4.1024984758       -0.1242017890
 H          4.7059096831        4.2562321228       -0.8372824626
 H          4.2569645141        3.8852633199        0.8757941873
 H          2.5666186768        5.5730216461       -1.1101863770
 H          2.1260834267        5.2013035161        0.6082372678
 H          2.6172911082        3.0952873332       -1.6185872802
 O          1.9675345919        0.7141900479       -1.9531552831
