  62
        -98.94455727
 C          1.7110945392        1.0814495001        0.0000498510
 C          2.9282997191        1.0796679396        0.7335668611
 C          4.0924153593        0.4867022607        0.0688173906
 C          3.9708696696        0.0086916821       -1.1824017500
 C          5.0680842099       -0.6028994166       -2.0101828205
 C          5.3073894104       -2.0920455668       -1.7257805322
 C          5.9890857503       -2.3980752682       -0.3915253825
 H          6.2927978106       -3.4464373180       -0.4203848436
 H          6.8959819701       -1.7991835380       -0.3024080116
 C          5.0999786600       -2.1763890899        0.8402653477
 H          4.0529216000       -2.1296794898        0.5313041576
 H          5.1944071302       -3.0297528906        1.5156693367
 C          5.4341062695       -0.9216010207        1.6472928992
 H          6.4337845395       -1.0178963209        2.0766859492
 H          4.7195259294       -0.8449387019        2.4708354292
 C          5.3718553492        0.3829999402        0.8422923507
 H          5.4057961389        1.2204785894        1.5433863817
 H          6.2283652993        0.4526636913        0.1719739309
 H          4.3498308505       -2.6160241471       -1.7739462629
 H          5.9384081106       -2.4798622057       -2.5288364726
 H          4.7667032701       -0.4959651054       -3.0544996904
 H          5.9947386598       -0.0489615365       -1.8574714797
 O          2.7969854097        0.0479598726       -1.8624140401
 C          1.6387467895        0.5579238916       -1.2907725397
 O          0.6458281896        0.4758849421       -2.0429080799
 O          3.0357560287        1.5635549283        1.8915254817
 C          0.5080627589        1.6961353589        0.6946774215
 C         -0.4085343909        0.6557104280        1.2916051402
 C         -0.7741386611        0.7032579963        2.6316376902
 C         -1.6543501009       -0.2268510046        3.1583790790
 C         -2.1846889805       -1.2263177238        2.3617302077
 C         -1.8162034403       -1.2866477521        1.0249575177
 C         -0.9434004805       -0.3479434913        0.4967510589
 H         -0.6763422203       -0.3952787000       -0.5485528811
 N         -2.3673307799       -2.2926382214        0.1943370965
 S         -3.9920642399       -2.0583788614       -0.1534641535
 O         -4.7566103500       -2.2744337431        1.0483666662
 O         -4.2912477295       -2.9284073502       -1.2679782945
 C         -4.0904874703       -0.3477381409       -0.6462754815
 C         -4.3589855807        0.6154234779        0.3051616596
 C         -4.3400470411        1.9485504784       -0.0707314689
 C         -4.0490396710        2.2924410900       -1.3817657885
 C         -3.7779483206        1.3131480011       -2.3246865396
 C         -3.7928288702       -0.0213504793       -1.9539741611
 H         -3.5877040599       -0.8122925884       -2.6579675120
 H         -3.5454501705        1.5838051424       -3.3422708692
 H         -4.0335230513        3.3307870403       -1.6744797373
 H         -4.5459365514        2.7129885175        0.6609623920
 H         -4.5802058308        0.3053193167        1.3132028092
 H         -1.8648768597       -2.3807805602       -0.6790015136
 H         -2.8842184003       -1.9500668845        2.7474398868
 H         -1.9298524211       -0.1743663359        4.2005734290
 H         -0.3578739514        1.4727337457        3.2648780011
 H          0.9303485486        2.2846741281        1.5202151122
 C         -0.2931125113        2.6266953697       -0.1968751175
 C         -1.0471726317        3.7604663988        0.4268831537
 C          0.1773405483        4.0352597001       -0.3922768758
 H          0.0614328783        4.4847992412       -1.3668031253
 H          1.0799878682        4.3350563698        0.1203108746
 H         -2.0086867617        4.0240308590        0.0164846338
 H         -0.9754865419        3.8805569576        1.4970083538
 H         -0.7410982810        2.1272789906       -1.0463754382
