  62
        -98.93989242
 C         -1.8726320893       -0.5892015696        0.0214563906
 C         -2.4210493095        0.7017149506        0.2362630389
 C         -3.8271243695        0.8897440900       -0.1426279812
 C         -4.5056796294       -0.1438774608       -0.6726128998
 C         -5.9559293895       -0.1135176614       -1.0576045997
 C         -6.8517117893       -0.5535093000        0.1087676209
 C         -6.5380674793        0.1509960017        1.4286085100
 H         -7.2508704192       -0.2152773674        2.1705790805
 H         -5.5423454793       -0.1475542177        1.7643913203
 C         -6.6103430995        1.6829806017        1.3632034580
 H         -7.1727227196        1.9905922405        0.4808949176
 H         -7.1546963394        2.0462646127        2.2374201876
 C         -5.2494274495        2.3818144818        1.3640753170
 H         -4.6446064594        2.0071813629        2.1938291774
 H         -5.4144284796        3.4488287020        1.5364972356
 C         -4.4305021796        2.2489740602        0.0738510971
 H         -5.0438828597        2.5383102690       -0.7822024932
 H         -3.5873425797        2.9429263204        0.1421950662
 H         -7.8916222994       -0.3682856604       -0.1662060093
 H         -6.7251460792       -1.6284654498        0.2562102523
 H         -6.2205208496        0.8939629582       -1.3730396210
 H         -6.1033285495       -0.7975082025       -1.8950653488
 O         -3.9471678293       -1.3611597710       -0.8780389683
 C         -2.6214248093       -1.6219490904       -0.5455982480
 O         -2.2652754392       -2.7844248007       -0.8067769666
 H          1.6587021505        0.9593051912        0.3705716283
 C          1.5214574005        0.4581091799       -0.5757986610
 C          0.4924273806       -0.4586360904       -0.7353330298
 C          0.3115477105       -1.0567269320       -1.9795661690
 C          1.1428715004       -0.7379987233       -3.0368107495
 C          2.1703957604        0.1749560670       -2.8747917607
 C          2.3560843204        0.7823102886       -1.6383688215
 N          3.3762644403        1.7233490390       -1.4598539728
 S          4.1403960904        1.9276235809        0.0046036869
 O          3.2958972804        2.6438451420        0.9268626060
 O          5.3904356603        2.5728540406       -0.3365226640
 C          4.4696097406        0.2882126618        0.6288378290
 C          4.2329734107        0.0189614535        1.9615003693
 C          4.5309396109       -1.2412258059        2.4567662509
 C          5.0523164109       -2.2087436669        1.6123333521
 C          5.2826940408       -1.9239318686        0.2752148518
 C          4.9947184006       -0.6636899193       -0.2231235598
 H          5.1734432205       -0.4149902706       -1.2562591502
 H          5.6852823308       -2.6793362294       -0.3799603673
 H          5.2768954510       -3.1902898864        1.9979761434
 H          4.3490211010       -1.4632654246        3.4959945912
 H          3.8136710707        0.7961829342        2.5806454884
 H          3.9951047203        1.8538521880       -2.2454196630
 H          2.8151429603        0.4280383160       -3.7024882511
 H          0.9913762004       -1.2069956845       -3.9972513388
 H         -0.4884337694       -1.7704795422       -2.1054763180
 C         -0.4196422893       -0.7826656690        0.4204489407
 H         -0.2392634593       -0.0230306179        1.1982558697
 C         -0.1372296691       -2.1443652081        1.0398445424
 C          0.7234737009       -3.1864236189        0.3968356037
 C          1.2259879409       -2.4384031973        1.5922364727
 H          1.3017218911       -2.9555285361        2.5364013834
 H          1.9933269409       -1.6960178174        1.4304712817
 H          1.1621782308       -2.9667090401       -0.5631058566
 H          0.4245769110       -4.2166892888        0.5129100151
 H         -0.9835090390       -2.5106668575        1.6116672830
 O         -1.7604059795        1.6550864313        0.7315588477
