  62
        -98.93478112
 C         -1.6135343843       -1.3049953141        0.0939245052
 C         -2.8976177594       -1.2293838405        0.6910326952
 C         -3.7601849944       -0.0990230695        0.3000812133
 C         -3.2865624335        0.8071313813       -0.5731401151
 C         -3.9589125347        2.0455023835       -1.1092274427
 C         -5.4255572172        1.8970193843       -1.5427096742
 C         -6.4093086884        2.6118125518       -0.6147782567
 H         -5.9726046380        3.5661275609       -0.3131169986
 H         -7.3202220686        2.8336432967       -1.1753265450
 C         -6.8143691418        1.8255417442        0.6308923072
 H         -7.4682437266        1.0002338398        0.3403097127
 H         -7.3995338987        2.4935551083        1.2673875648
 C         -5.6555282661        1.2565510215        1.4522986978
 H         -4.8418221490        1.9779468637        1.5163588024
 H         -6.0173413264        1.0940188127        2.4698616689
 C         -5.1281554651       -0.0866766311        0.9259356802
 H         -5.0596682881       -0.8018255975        1.7517220290
 H         -5.8433146402       -0.5154166253        0.2174073744
 H         -5.5247895625        2.3329584042       -2.5382099924
 H         -5.6832857658        0.8422086843       -1.6267402435
 H         -3.3500592008        2.3530605050       -1.9624472133
 H         -3.8723979244        2.8382823235       -0.3621719487
 O         -2.0333575602        0.7156836179       -1.0977255008
 C         -1.1699478809       -0.3292105971       -0.7993897092
 O         -0.0803011225       -0.2523137105       -1.3951526956
 O         -3.3111889536       -2.0772326133        1.5266266102
 C         -0.7195254455       -2.4581547059        0.5194446464
 C          0.6250629312       -1.9225161733        0.9358201353
 C          0.7910905317       -1.3787369613        2.2059288394
 C          1.9987117524       -0.8201758655        2.5824219807
 C          3.0558375356       -0.7657569056        1.6905836059
 C          2.8896498688       -1.2857167823        0.4136970633
 C          1.6911099402       -1.8858875676        0.0520375224
 H          1.5736791310       -2.2827172670       -0.9439918256
 N          3.9315757120       -1.1859697450       -0.5222301501
 S          4.8461790856        0.2111095594       -0.5519906709
 O          5.3003971041        0.3372024814       -1.9203311261
 O          5.8933454043        0.1141938014        0.4375337187
 C          3.7763048506        1.5804873813       -0.1305420392
 C          4.2866325808        2.5697839753        0.6877115176
 C          3.4941539601        3.6612749211        1.0026017940
 C          2.2048817007        3.7443101778        0.4995026859
 C          1.7074394468        2.7425760964       -0.3185356133
 C          2.4973227058        1.6509886154       -0.6449170215
 H          2.0974591212        0.8650464018       -1.2658553844
 H          0.7012956428        2.7886985426       -0.7054652412
 H          1.5836262144        4.5906735329        0.7472284799
 H          3.8814329341        4.4396589994        1.6402175190
 H          5.2897873436        2.4587526867        1.0667993522
 H          3.6636875835       -1.4625373377       -1.4555404922
 H          4.0013685435       -0.3247629476        1.9631682497
 H          2.1171887211       -0.4121142927        3.5745175465
 H         -0.0426285122       -1.3920909432        2.8940097799
 H         -1.2168781745       -2.8731135313        1.4103227283
 C         -0.6167283754       -3.5940815034       -0.4877287096
 C         -1.8327475452       -4.0592823931       -1.2302240883
 C         -0.7121964906       -3.3947767514       -1.9694871324
 H         -0.0868831612       -4.0049655860       -2.6054524879
 H         -0.8618055986       -2.3931904657       -2.3406203436
 H         -1.9841354369       -5.1197060728       -1.3639754997
 H         -2.7461229713       -3.5018315988       -1.0815217389
 H          0.0668984426       -4.3667856513       -0.1484018078
