  62
        -98.93969776
 C         -1.4848839584       -1.5676513089       -0.0176711020
 C         -1.4579417059       -0.1573515132        0.0692357505
 C         -2.7344792884        0.5119521289        0.3945532366
 C         -3.8252897480       -0.2449771489        0.6151028535
 C         -5.2267576073        0.2108248129        0.9239095474
 C         -5.9632713523        0.7447360342       -0.3155103522
 C         -5.1357103158        1.6653857275       -1.2087257822
 H         -4.2388763444        1.1355231577       -1.5347188422
 H         -5.7281063732        1.8797312643       -2.1023128191
 C         -4.7392310515        2.9991705953       -0.5801327935
 H         -4.2338121126        3.5835678482       -1.3531789990
 H         -5.6429034651        3.5415048866       -0.2929220963
 C         -3.8137919288        2.9170614451        0.6357033359
 H         -4.3640883142        2.6291556593        1.5273002256
 H         -3.4308326305        3.9248255103        0.8203254864
 C         -2.5981122538        2.0143549048        0.4504017587
 H         -2.0743185216        2.3003875139       -0.4683259291
 H         -1.8856018491        2.2124570721        1.2598951737
 H         -6.2734011217       -0.1123164085       -0.9184946362
 H         -6.8630222776        1.2660832738        0.0157626302
 H         -5.7655418175       -0.6623647600        1.2984655102
 H         -5.2110278310        0.9539821960        1.7156169300
 O         -3.7951380598       -1.6079358650        0.5436682915
 C         -2.6431949533       -2.3014038873        0.2288294712
 O         -2.7721971603       -3.5429638127        0.2075968077
 H          2.2884014902       -1.1880369658       -0.7679750161
 C          2.0639782099       -1.3925084418        0.2646243804
 C          0.8607904014       -1.9737978868        0.6286997495
 C          0.6251119018       -2.2347495244        1.9769141546
 C          1.5671941925       -1.9139558429        2.9340772682
 C          2.7602045041       -1.3137765302        2.5691466140
 C          3.0061800846       -1.0535839058        1.2270226015
 N          4.2127403552       -0.4637553387        0.8255581009
 S          4.2638299403        0.6025355304       -0.4576530054
 O          4.1651328727       -0.1137622942       -1.7051855531
 O          5.5010990757        1.3293940666       -0.2552119023
 C          2.8897931864        1.7230597775       -0.2699258996
 C          2.6922494136        2.3304019984        0.9534513503
 C          1.6580749488        3.2406366999        1.0888245840
 C          0.8492656037        3.5341339895        0.0028023331
 C          1.0631194289        2.9186451677       -1.2187208236
 C          2.0911249116        2.0016751188       -1.3579947181
 H          2.2827866046        1.4906481900       -2.2883760835
 H          0.4272606791        3.1408691242       -2.0610761063
 H          0.0417507027        4.2413183126        0.1114929341
 H          1.4830269291        3.7155581593        2.0413027647
 H          3.3405900763        2.0899857106        1.7807222905
 H          4.8197391707       -0.1731325131        1.5774806561
 H          3.4954975329       -1.0542265534        3.3155106565
 H          1.3701792802       -2.1242310551        3.9745678539
 H         -0.3136921037       -2.6913080167        2.2612536295
 C         -0.2152529642       -2.3220712207       -0.3697767316
 H         -0.4532623262       -3.3902735562       -0.2636613705
 C          0.1777218561       -2.0485700054       -1.8059248496
 C          1.0384104918       -3.0255872182       -2.5468587308
 C         -0.4112413645       -2.8842989989       -2.9003636016
 H         -0.6717348791       -2.4055604097       -3.8324701656
 H         -1.0884892494       -3.6752982673       -2.6119831065
 H          1.7798663673       -2.6428450205       -3.2322529344
 H          1.3474119585       -3.9164883148       -2.0210752625
 H          0.3190061876       -0.9925152206       -2.0069225560
 O         -0.4191790597        0.5250693203       -0.1214993683
