  62
        -98.93431699
 C          2.3207341933        0.8725475593       -0.1967769608
 C          3.5757533719        1.1937720861        0.3703454031
 C          4.7390800186        0.4546036241       -0.1486327776
 C          4.5520566573       -0.4552269858       -1.1205432072
 C          5.5862835753       -1.3505810066       -1.7447565381
 C          5.6196302825       -2.7147135475       -1.0349432698
 C          6.5308586585       -2.7807694720        0.1901922639
 H          6.3569327143       -3.7454893098        0.6722759707
 H          7.5726654677       -2.7609299917       -0.1364535574
 C          6.3217783205       -1.6703906553        1.2234234273
 H          5.2534408110       -1.5023867246        1.3717951045
 H          6.7289859153       -2.0181417773        2.1748487488
 C          7.0114713310       -0.3520939698        0.8412423916
 H          7.7030571645       -0.5385324008        0.0198324668
 H          7.6155283013       -0.0042355132        1.6817013298
 C          6.0669999822        0.8012362738        0.4676580510
 H          5.8132800429        1.3706043671        1.3672721413
 H          6.5927819189        1.4914095987       -0.2002314060
 H          4.5954316970       -2.9663131287       -0.7474373861
 H          5.9542214213       -3.4721816109       -1.7466132924
 H          5.2791474828       -1.5052383686       -2.7811284035
 H          6.5633618386       -0.8769594715       -1.7346457876
 O          3.3259439289       -0.7278520547       -1.6458472016
 C          2.1821092714       -0.0909603490       -1.1953196479
 O          1.1345196069       -0.4632758008       -1.7567210990
 H         -1.5029624607        0.8574258201       -0.3936880135
 C         -1.1208739825        0.3185581787        0.4565857331
 C          0.1521956661        0.5696594541        0.9406179640
 C          0.6056850687       -0.1574503556        2.0395608155
 C         -0.1951669872       -1.1119496226        2.6343609691
 C         -1.4679222297       -1.3585075386        2.1494883751
 C         -1.9273115353       -0.6442658347        1.0495137432
 N         -3.1984141377       -0.9067313316        0.5150999742
 S         -4.0801647179        0.3441931668       -0.1910694136
 O         -3.6096648205        0.5642165586       -1.5350518544
 O         -4.0890576799        1.4983807490        0.6804111755
 C         -5.6968216659       -0.4076900113       -0.2389544615
 C         -6.6306628604       -0.0865698594        0.7278173226
 C         -7.8721524565       -0.7022474101        0.6911915576
 C         -8.1558890521       -1.6253739440       -0.3038805521
 C         -7.2085088573       -1.9369798517       -1.2681042518
 C         -5.9659899437       -1.3242990911       -1.2380528698
 H         -5.2014980235       -1.5276700598       -1.9699863429
 H         -7.4332920936       -2.6531466793       -2.0419836699
 H         -9.1223934808       -2.1033052488       -0.3304510846
 H         -8.6119622907       -0.4599954976        1.4370006871
 H         -6.3679407305        0.6424301561        1.4773841542
 H         -3.7744387238       -1.4699278615        1.1256010740
 H         -2.0956043766       -2.1050492703        2.6119569298
 H          0.1699281503       -1.6658331978        3.4862393293
 H          1.6001103261        0.0388562924        2.4173218518
 C          1.0812915696        1.5826688660        0.3188384285
 H          1.4382583461        2.2524701139        1.1151419024
 C          0.4385288471        2.4187529083       -0.7659117661
 C         -0.4672402838        3.5523605171       -0.3919560417
 C          0.8879726263        3.8336542852       -0.9663878484
 H          0.9527761797        4.2154822558       -1.9741736324
 H          1.6549096041        4.2098810652       -0.3051852159
 H         -1.3403316071        3.7349857973       -1.0006722757
 H         -0.6244950039        3.7379059304        0.6600480686
 H          0.1915929957        1.8440863721       -1.6520194384
 O          3.7180546427        2.0537892080        1.2816578275
