  62
        -98.94468755
 C          2.0070511631        0.7585586839        0.5623332044
 C          1.9610072892        0.0569562857       -0.6664471821
 C          2.0235388934       -1.4051395302       -0.5672297072
 C          2.0584976001       -1.9924273092        0.6422035362
 C          2.0744794908       -3.4738048483        0.9075853417
 C          3.4684043048       -4.1118234881        0.8270157142
 C          4.0424806238       -4.2459644871       -0.5839268424
 H          4.9142779186       -4.8993387748       -0.5137053961
 H          3.3128676832       -4.7420025381       -1.2245562168
 C          4.4710342216       -2.9172413006       -1.2218772780
 H          4.5636275684       -2.1539702409       -0.4459236811
 H          5.4566107109       -3.0332133983       -1.6780540633
 C          3.5262456113       -2.4027016003       -2.3079753085
 H          3.5219245233       -3.0978129850       -3.1503617028
 H          3.9044512909       -1.4415459962       -2.6648062629
 C          2.0799922015       -2.1959107510       -1.8388175473
 H          1.5432314062       -1.6264804560       -2.6016616675
 H          1.5813294728       -3.1565074124       -1.7096928467
 H          4.1538230175       -3.5287506224        1.4462844051
 H          3.3937315388       -5.1107155135        1.2629294791
 H          1.6889008506       -3.6097808182        1.9205976365
 H          1.3993358416       -3.9733589557        0.2118300668
 O          2.0649073397       -1.2826641752        1.8035006221
 C          2.0431306423        0.1025445473        1.7908516621
 O          2.0615860062        0.6278844096        2.9247336711
 H         -0.4797118642        1.1663835303        0.9472874144
 C         -0.5341777800        1.9653807345        0.2206970193
 C          0.6133451542        2.6786391347       -0.1023248566
 C          0.5139260725        3.7140312728       -1.0222300447
 C         -0.6991507661        3.9959976966       -1.6272112241
 C         -1.8269487801        3.2497529638       -1.3407233396
 C         -1.7415377421        2.2251811108       -0.4038332346
 N         -2.8698121800        1.4573806921       -0.0647489704
 S         -2.6362975573       -0.1624505325        0.3533796275
 O         -2.2807138291       -0.2338449660        1.7498558771
 O         -1.7339574279       -0.8040776642       -0.5756944167
 C         -4.2951751378       -0.7795328085        0.1300351647
 C         -4.6283990669       -1.4179499091       -1.0495581040
 C         -5.9298355533       -1.8608249282       -1.2277816761
 C         -6.8713902267       -1.6555035465       -0.2305594686
 C         -6.5218638177       -1.0138127634        0.9484950179
 C         -5.2221856485       -0.5698238337        1.1335933043
 H         -4.9000045814       -0.0747850886        2.0348546735
 H         -7.2554867282       -0.8583695800        1.7229050261
 H         -7.8833176888       -2.0006046296       -0.3719189067
 H         -6.2031306535       -2.3631392519       -2.1416790962
 H         -3.8598026480       -1.5610374115       -1.7922964658
 H         -3.6280582803        1.5632673743       -0.7252894074
 H         -2.7647637182        3.4541893578       -1.8343607671
 H         -0.7619189517        4.7977171972       -2.3473331298
 H          1.3884608124        4.2899930264       -1.2770548272
 C          1.9048538276        2.2733619754        0.5676816887
 H          1.8536048288        2.5730031136        1.6253403205
 C          3.1347209444        2.8943151726       -0.0609818842
 C          3.6109398226        4.2445687223        0.3810501272
 C          4.3813954108        3.0168670373        0.7608134807
 H          5.3329440593        2.8339719487        0.2847702952
 H          4.3325490247        2.6751939352        1.7848350880
 H          3.0464582919        4.7453941756        1.1530104786
 H          4.0388155053        4.9071516185       -0.3560255682
 H          3.2466839887        2.6242042331       -1.1047210124
 O          1.8749540268        0.6220910049       -1.7883534672
