  62
        -98.93723725
 C         -1.1679982714       -0.9147589960        0.5782102485
 C         -1.9141358751       -0.5873651128       -0.5775526472
 C         -2.9375118011        0.4701610550       -0.4327938300
 C         -3.0510245773        1.1123233091        0.7437570868
 C         -4.0351717380        2.1831863219        1.1328260511
 C         -5.4434435487        1.6267028226        1.4004234658
 C         -5.9316888598        0.5950023537        0.3867641791
 H         -5.2251675230       -0.2362461831        0.3528766891
 H         -6.8832220176        0.1978477844        0.7497868077
 C         -6.1562644498        1.1270898918       -1.0264705402
 H         -6.5789236076        0.3106629154       -1.6174966831
 H         -6.8954359030        1.9305975558       -0.9934900592
 C         -4.9117784242        1.6428039845       -1.7520793661
 H         -5.1754435906        1.7610104307       -2.8072593952
 H         -4.6284163178        2.6290857909       -1.3940233449
 C         -3.7114597946        0.7022125003       -1.7082937540
 H         -2.9701287710        1.0487441413       -2.4392097578
 H         -4.0205412319       -0.2887900751       -2.0602769802
 H         -5.4353747788        1.1492548463        2.3833680905
 H         -6.1427848119        2.4635720969        1.4380731955
 H         -4.0600816439        2.9589594097        0.3729986096
 H         -3.6577092749        2.6352775986        2.0529817129
 O         -2.2507773897        0.8196858363        1.8090688292
 C         -1.2907343730       -0.1703627954        1.7526146350
 O         -0.6113603871       -0.2886756769        2.7934254776
 O         -1.7559604544       -1.1479053484       -1.6932951924
 C         -0.0839458860       -1.9779391555        0.5584449524
 C          0.8368331115       -1.7506850988       -0.6162386662
 C          1.2611990647       -2.7463757829       -1.4856594687
 C          2.1377469688       -2.4453650557       -2.5145226944
 C          2.6255846036       -1.1627619624       -2.6855938664
 C          2.2026992884       -0.1581997228       -1.8219021283
 C          1.3156769092       -0.4606206173       -0.8035968815
 H          0.9656815527        0.3315697591       -0.1593812093
 N          2.6632948192        1.1602108544       -1.9543322474
 S          2.8614844545        2.1091764091       -0.5946411257
 O          1.5849030778        2.5714803625       -0.1079739513
 O          3.7842300671        3.1421858374       -1.0160319236
 C          3.6552089421        1.0470126963        0.5998690184
 C          2.9895728873        0.6382140406        1.7370027602
 C          3.6298893762       -0.2232106424        2.6146207817
 C          4.9177073613       -0.6572545828        2.3433978846
 C          5.5779528039       -0.2293514554        1.2012060868
 C          4.9420134570        0.6282238430        0.3194209247
 H          5.4261805895        0.9912816679       -0.5724618977
 H          6.5818508909       -0.5637533151        0.9953414062
 H          5.4086641864       -1.3302471530        3.0284190391
 H          3.1082186439       -0.5516405403        3.4997205298
 H          1.9850365484        0.9851421005        1.9258513718
 H          3.3992146157        1.2964344931       -2.6309531500
 H          3.3125481937       -0.9341451283       -3.4856960978
 H          2.4518595937       -3.2256106931       -3.1910063837
 H          0.8915442452       -3.7522125406       -1.3738731449
 H          0.5072999272       -1.7837346230        1.4698387941
 C         -0.5907536739       -3.4082184644        0.6733951002
 C         -1.9507262365       -3.7085716337        1.2281005126
 C         -1.6609703372       -3.9564974665       -0.2202673520
 H         -1.5734461660       -4.9799191236       -0.5551395288
 H         -2.0844343362       -3.2888629272       -0.9530857302
 H         -2.0597999500       -4.5567576460        1.8874843538
 H         -2.5818605239       -2.8702961495        1.4869734576
 H          0.2001804089       -4.0945623118        0.9595702899
