  62
        -98.93802034
 C          2.3835683952        1.2113855464       -0.0910686604
 C          3.1583336291        0.4930735443        0.8457455175
 C          4.0182224896       -0.5841151802        0.3172345923
 C          4.0084985389       -0.8264673255       -1.0071456674
 C          4.7602706766       -1.8901946264       -1.7620061017
 C          4.1337954788       -3.2852536641       -1.6001339504
 C          3.6981099873       -3.6351567387       -0.1793376580
 H          3.1645681710       -4.5886161446       -0.2200473310
 H          2.9887849072       -2.8839797508        0.1741018238
 C          4.8319413028       -3.7781645158        0.8332729657
 H          5.5097406384       -4.5678552751        0.5015196849
 H          4.3852102492       -4.0996582498        1.7778532999
 C          5.6534237606       -2.5156313841        1.1009333096
 H          6.3514782244       -2.3246031857        0.2905034025
 H          6.2576732959       -2.7044213799        1.9931574211
 C          4.8289260560       -1.2656167874        1.3935445132
 H          5.4985472863       -0.4935085221        1.7920009972
 H          4.1262066861       -1.4826137110        2.2065573711
 H          4.8483900962       -4.0286603074       -1.9567913420
 H          3.2487986212       -3.3331932783       -2.2392764333
 H          5.8032312428       -1.8946818730       -1.4597489275
 H          4.7205302484       -1.6125239876       -2.8174683690
 O          3.2283797495       -0.1179753913       -1.8728002989
 C          2.4020060410        0.9075942918       -1.4518811791
 O          1.7514939494        1.4550372507       -2.3611373072
 O          3.1297277535        0.7300394528        2.0855739438
 C          1.4846663064        2.3320042257        0.3953114112
 C          0.0416533593        2.0384613010        0.0635714321
 C         -0.8349119526        2.9938004095       -0.4335950193
 C         -2.1537063929        2.6660443637       -0.6983453446
 C         -2.6276540887        1.3871981009       -0.4734741529
 C         -1.7634779895        0.4262380871        0.0353411457
 C         -0.4456597685        0.7595503497        0.3052678645
 H          0.2245699610        0.0085920790        0.7072753937
 N         -2.2358056656       -0.8805226287        0.2610636135
 S         -3.5853013618       -1.0555130307        1.2484892555
 O         -3.6713823482        0.0136856740        2.2164898874
 O         -3.4937507637       -2.3980674418        1.7799184543
 C         -4.9598165930       -0.9700080927        0.1207702277
 C         -5.9490717210       -0.0253975306        0.3120551544
 C         -7.0155607537        0.0158657732       -0.5726382607
 C         -7.0733589105       -0.8833460075       -1.6264034039
 C         -6.0725877368       -1.8274261224       -1.8030055927
 C         -5.0045075414       -1.8751155100       -0.9214878047
 H         -4.2088146172       -2.5945885613       -1.0207961384
 H         -6.1208158575       -2.5249854471       -2.6236411682
 H         -7.9033059300       -0.8487279557       -2.3143388614
 H         -7.7947758007        0.7485275161       -0.4369377334
 H         -5.8581603679        0.6566035717        1.1422994583
 H         -1.5124718750       -1.5247865542        0.5468950902
 H         -3.6511922008        1.1260880248       -0.6871580477
 H         -2.8210926674        3.4181567314       -1.0903524255
 H         -0.4848530237        3.9960711262       -0.6176678315
 H          1.5848495929        2.3324712418        1.4917638109
 C          1.9702112650        3.6640522041       -0.1372935539
 C          1.7574145259        4.9195829973        0.6529699664
 C          3.1302157833        4.3306324206        0.5374735861
 H          3.8618230238        4.8368479515       -0.0741309957
 H          3.5508007157        3.8363088655        1.4012578078
 H          1.5485838743        5.8350241197        0.1202482799
 H          1.2480981654        4.8336793594        1.6010416250
 H          1.9195522512        3.7212401027       -1.2188052046
