  62
        -98.93896325
 C         -1.7007640085       -0.5031653150        0.1561451192
 C         -2.8456284806       -0.4862664764        0.9945398550
 C         -3.9775639782        0.3576286650        0.5772138930
 C         -3.8831609259        1.0655255837       -0.5633527652
 C         -4.8426941777        2.0354046951       -1.2204159204
 C         -6.3006819715        2.1125924523       -0.7754072520
 C         -7.1327115169        0.8707519681       -1.0936368843
 H         -8.1206261760        0.9978074078       -0.6455966298
 H         -7.2645265607        0.8094033089       -2.1769031955
 C         -6.5415670467       -0.4567901697       -0.6258126501
 H         -7.2314552124       -1.2518742878       -0.9214712228
 H         -5.5983111109       -0.6412317020       -1.1439896587
 C         -6.3127849280       -0.5770415932        0.8796135118
 H         -6.0457393651       -1.6162391363        1.0895561873
 H         -7.2405792632       -0.3570675551        1.4112369154
 C         -5.1958044675        0.3119053632        1.4537662901
 H         -5.5566831672        1.3165444818        1.6614126356
 H         -4.8733265008       -0.1229048493        2.4042757329
 H         -6.3593917419        2.3502434097        0.2826797756
 H         -6.7457662309        2.9541992238       -1.3132481194
 H         -4.3913934903        3.0265821893       -1.0994623523
 H         -4.8069303231        1.8104908144       -2.2911717947
 O         -2.7593820136        1.0267429160       -1.3342552107
 C         -1.6545733672        0.2551890165       -1.0117345865
 O         -0.7298955270        0.3522841128       -1.8447133925
 H          0.8806441607        0.6646340200       -0.4169861969
 C          1.2043734359        0.4020244840        0.5792017389
 C          0.5606771834       -0.6242141533        1.2559740483
 C          0.9963079965       -0.9486529076        2.5351767091
 C          2.0494592780       -0.2647700891        3.1185891963
 C          2.6872960674        0.7588234925        2.4405220985
 C          2.2519335313        1.0951166808        1.1659281855
 N          2.9071385198        2.1293898323        0.4557254326
 S          4.4679343395        1.7421478133       -0.0229923397
 O          5.3101521433        1.6876454110        1.1447527164
 O          4.8300134873        2.7161468152       -1.0273980404
 C          4.3145272771        0.1201396312       -0.7470490521
 C          4.4825948761       -0.9949528394        0.0489003427
 C          4.2732305927       -2.2476664710       -0.5041544497
 C          3.8987489648       -2.3617550523       -1.8339823663
 C          3.7300122888       -1.2317684980       -2.6190068816
 C          3.9336155901        0.0236483704       -2.0702260501
 H          3.8139669491        0.9266283693       -2.6477640744
 H          3.4335623319       -1.3232219485       -3.6517377648
 H          3.7388069872       -3.3377768393       -2.2651591403
 H          4.3978264912       -3.1284909638        0.1047088140
 H          4.7770835555       -0.8627082599        1.0769383622
 H          2.3843009485        2.4210238858       -0.3593655147
 H          3.5190714969        1.2934514745        2.8699374786
 H          2.3767952685       -0.5302427512        4.1121968904
 H          0.4980075330       -1.7386622466        3.0774136390
 C         -0.5532286668       -1.3976019363        0.5927589028
 H         -0.9886029404       -2.0686286318        1.3450989840
 C          0.0122628691       -2.2423941215       -0.5338921097
 C          0.6835065208       -3.5394974566       -0.2019432124
 C         -0.6527119656       -3.5390274162       -0.8804091254
 H         -0.7085927319       -3.8265621605       -1.9194248280
 H         -1.5200619380       -3.8246176416       -0.3029054497
 H          1.5500845997       -3.8284066267       -0.7746645481
 H          0.7227435774       -3.8305694452        0.8364922038
 H          0.4187926822       -1.6562095484       -1.3479337680
 O         -2.9195260712       -1.1557254623        2.0592974869
