  62
        -98.93271449
 C         -1.6246577253       -1.3925977065       -0.5875649403
 C         -1.5171910848       -0.2265190539        0.2107714448
 C         -2.7839249694        0.3144299143        0.7382075293
 C         -3.9381940584       -0.3214187777        0.4729486351
 C         -5.3088885587        0.1568888245        0.8592795998
 C         -5.7554409241        1.2899660818       -0.0868965143
 C         -5.9198578699        2.6509925001        0.5899413330
 H         -6.8477662599        2.6511803392        1.1656870241
 H         -6.0223740244        3.3981849050       -0.1998618752
 C         -4.7865675233        3.0726859628        1.5305384307
 H         -4.9045897132        2.5751842199        2.4944422594
 H         -4.9090288932        4.1419343207        1.7161498115
 C         -3.3611105920        2.8221621584        1.0215258781
 H         -2.7395840935        3.6680627044        1.3224964308
 H         -3.3437375849        2.7859388034       -0.0679874356
 C         -2.6943369682        1.5531673884        1.5860406739
 H         -3.0940426884        1.3427169962        2.5821601273
 H         -1.6218678581        1.7398270565        1.7004634130
 H         -6.7061642001        1.0227630060       -0.5506101921
 H         -5.0240414863        1.3699530829       -0.8937952753
 H         -5.3017441265        0.4995851340        1.8916839502
 H         -5.9850045063       -0.6945479528        0.7786103652
 O         -3.9963705134       -1.4619686050       -0.2622001908
 C         -2.8515944571       -2.0284924139       -0.7972799395
 O         -3.0545238373       -3.0849422929       -1.4282819328
 O         -0.4323424435        0.3526252882        0.4707071435
 C         -0.4083690643       -2.0722230446       -1.1957213059
 C          0.6482893948       -2.2850558278       -0.1405991011
 C          0.4503877120       -3.2948742616        0.7971604350
 C          1.3915744758       -3.5471598211        1.7760907940
 C          2.5453529634       -2.7867051095        1.8426028605
 C          2.7459192931       -1.7646458266        0.9237995479
 C          1.8040102872       -1.5219775817       -0.0674151575
 H          1.9681096140       -0.7213457522       -0.7696389411
 N          3.9179659384       -0.9803195367        0.9663000572
 S          3.7447708629        0.6576169885        1.3264230790
 O          5.0546248350        1.0485598981        1.8113748597
 O          2.6489061993        0.8847560062        2.2386352178
 C          3.4688929536        1.4540240134       -0.2387852126
 C          4.5397425691        1.5464303633       -1.1070475785
 C          4.3663025186        2.1988357172       -2.3163802509
 C          3.1343559961        2.7550114423       -2.6281750665
 C          2.0712196713        2.6524040439       -1.7443872075
 C          2.2330081276        1.9907249646       -0.5361805812
 H          1.4210948019        1.8597433600        0.1615227834
 H          1.1119431961        3.0802383468       -1.9895537731
 H          3.0000336388        3.2707457330       -3.5662824628
 H          5.1891924474        2.2768105323       -3.0085871192
 H          5.4835283012        1.1177544443       -0.8135673428
 H          4.6261924594       -1.3632912697        1.5787003519
 H          3.2848665889       -2.9765272348        2.6068625045
 H          1.2263621864       -4.3372064803        2.4933372213
 H         -0.4565154565       -3.8826037894        0.7460202594
 H         -0.7714616535       -3.0673044044       -1.5006189560
 C          0.1277223459       -1.4092362154       -2.4553443089
 C         -0.8230408412       -0.8979606133       -3.4962014397
 C          0.0280400768        0.0603542488       -2.7213731356
 H          0.8526690037        0.5394168134       -3.2283141112
 H         -0.4409106742        0.6773797868       -1.9724453931
 H         -0.5926448779       -1.0716094024       -4.5363327678
 H         -1.8782041439       -0.9471936278       -3.2678293888
 H          1.0191704034       -1.9096522188       -2.8209727172
