  62
        -98.94479094
 C          2.0428748939        1.3227570833        0.0021695524
 C          2.6584632416        0.6853923140        1.1053978320
 C          3.8501420164       -0.1180265209        0.8031050128
 C          4.2736922647       -0.2113390035       -0.4709237523
 C          5.4414096759       -1.0365074475       -0.9270919959
 C          5.0004493316       -2.4518956026       -1.3253220444
 C          4.1159550117       -3.1385972298       -0.2845283688
 H          3.1658640693       -2.6031390720       -0.2160691760
 H          3.8915749896       -4.1403147160       -0.6577071416
 C          4.7430391231       -3.2415664667        1.1130262248
 H          4.5751882065       -4.2495447160        1.4983951282
 H          5.8217519453       -3.0961783274        1.0462069604
 C          4.1638856906       -2.2690804058        2.1422260160
 H          4.5166876578       -2.5721062541        3.1316163279
 H          3.0736003801       -2.3482369174        2.1466990984
 C          4.5410221751       -0.7940622537        1.9541714687
 H          4.2256671478       -0.2543618826        2.8519854418
 H          5.6248667166       -0.7013523458        1.8610732283
 H          5.8927690476       -3.0552120972       -1.5016711974
 H          4.4410397213       -2.3901582814       -2.2617512332
 H          6.1794444552       -1.0856146930       -0.1288091261
 H          5.8890399681       -0.5481731813       -1.7942806651
 O          3.6488303492        0.4037003596       -1.5065838549
 C          2.5136983204        1.1761835821       -1.3029785935
 O          2.0342093948        1.6664262819       -2.3416299070
 O          2.2277976539        0.7796548852        2.2872096966
 C          0.8065263094        2.1711713717        0.2424206653
 C         -0.3752322837        1.5647701605       -0.4736577858
 C         -1.2010492662        2.2726145569       -1.3358257303
 C         -2.2573510067        1.6407669420       -1.9707300499
 C         -2.5204161304        0.3017673806       -1.7521035110
 C         -1.7141501244       -0.4105249045       -0.8719340873
 C         -0.6574229661        0.2238157960       -0.2382503571
 H         -0.0272661407       -0.3330602423        0.4443627452
 N         -1.9854539491       -1.7661784239       -0.6241001988
 S         -3.5789523720       -2.2247006257       -0.4002195728
 O         -3.5183103653       -3.4014247959        0.4382892866
 O         -4.2187504686       -2.3982846426       -1.6805330575
 C         -4.3410173202       -0.8697157994        0.4758497949
 C         -3.8169772495       -0.5107459485        1.7020073313
 C         -4.3752264672        0.5591175967        2.3821249711
 C         -5.4431128780        1.2482901685        1.8275951302
 C         -5.9620553761        0.8715109377        0.5988740786
 C         -5.4060883022       -0.1966640560       -0.0869305779
 H         -5.7758138619       -0.5210162960       -1.0460019170
 H         -6.7937938393        1.4076661137        0.1712612546
 H         -5.8723454849        2.0833756629        2.3582470943
 H         -3.9725112251        0.8526269134        3.3383279600
 H         -2.9887288752       -1.0687319393        2.1091281089
 H         -1.3783485794       -2.1908666884        0.0607134245
 H         -3.3260840685       -0.2072780938       -2.2556185219
 H         -2.8826753188        2.1993733872       -2.6500647389
 H         -1.0111927913        3.3162742769       -1.5227087625
 H          0.6174584342        2.1067974620        1.3242886521
 C          1.0683063294        3.6171876054       -0.1193521655
 C          0.2932749191        4.7110198955        0.5507191636
 C          1.7389837919        4.5038503830        0.8853198337
 H          2.4609716686        5.2258951690        0.5344611662
 H          1.9878738035        4.0699251241        1.8428786729
 H          0.0225522559        5.5806577805       -0.0285801868
 H         -0.4426821471        4.4232133494        1.2858633712
 H          1.3440139472        3.7443386110       -1.1599348619
