  62
        -98.94520096
 C         -1.7763870498       -1.3272103894       -0.2435913003
 C         -2.8745533799       -0.6904201696        0.3740327697
 C         -3.2633545499        0.6210822105       -0.1709397801
 C         -2.5699583298        1.1292926107       -1.2050418999
 C         -2.7409400098        2.4782652808       -1.8465876697
 C         -1.7882048000        3.4983216908       -1.1980130294
 C         -2.3609101001        4.2235039205        0.0182020607
 H         -1.5555663002        4.8290128605        0.4407997009
 H         -3.1550364901        4.9022469305       -0.3021235593
 C         -2.9050713702        3.3035184803        1.1138969605
 H         -2.9171929704        3.8654655201        2.0503478406
 H         -2.2157425202        2.4671890903        1.2514131504
 C         -4.3230612202        2.7891755603        0.8225967102
 H         -4.9577642403        2.9721113601        1.6921846401
 H         -4.7475254801        3.3680067304        0.0024115402
 C         -4.4295039500        1.2902204303        0.5046039899
 H         -4.5659309601        0.7312914401        1.4358989498
 H         -5.3275529100        1.1174687204       -0.0981643202
 H         -1.5106144899        4.2474602309       -1.9428076592
 H         -0.8767051900        2.9710357308       -0.9019008094
 H         -2.4663413997        2.3624885910       -2.8971094897
 H         -3.7737263099        2.8093540008       -1.7871945297
 O         -1.5371622897        0.4678055409       -1.7921078199
 C         -1.0898357697       -0.7449858092       -1.3078034401
 O         -0.0983511796       -1.2075683190       -1.9064019401
 H         -0.1730455501       -0.4995534897        1.5084526201
 C          0.5659286400       -1.2664300796        1.3272192500
 C          0.1903698001       -2.4627660995        0.7294863797
 C          1.1644608202       -3.4329424194        0.5286362897
 C          2.4802312701       -3.1930589194        0.8873486599
 C          2.8582404100       -1.9760595095        1.4246778801
 C          1.8884122299       -1.0044228596        1.6402599602
 N          2.2116276598        0.2753087903        2.1433210405
 S          2.0045845299        1.5424979505        1.0593845807
 O          2.4563086897        2.7225896204        1.7659752410
 O          0.6481384499        1.5658690305        0.5812100405
 C          3.1545043501        1.1625047108       -0.2501406592
 C          2.7996527502        0.2559367310       -1.2286566694
 C          3.7459382803       -0.0982103688       -2.1793262494
 C          5.0177500203        0.4508462713       -2.1347147191
 C          5.3565075401        1.3614306911       -1.1446436689
 C          4.4194139700        1.7167682309       -0.1888606290
 H          4.6344264599        2.4212741607        0.5985794612
 H          6.3451354801        1.7902793312       -1.1127282887
 H          5.7476759804        0.1678241615       -2.8767212991
 H          3.4738825705       -0.8061825286       -2.9457214696
 H          1.8027221302       -0.1575392390       -1.2521558396
 H          3.1426449898        0.3329283503        2.5344883306
 H          3.8899576100       -1.7755337995        1.6718353503
 H          3.2252691702       -3.9564361893        0.7235064998
 H          0.8944476803       -4.3758312793        0.0817437895
 C         -1.2538331998       -2.6340272495        0.3242895295
 H         -1.8520287199       -2.8246655897        1.2281523194
 C         -1.4696533797       -3.7697404093       -0.6545686607
 C         -1.7112799096       -5.1639862994       -0.1599113010
 C         -2.8339836996       -4.3789625494       -0.7664879510
 H         -3.1942116195       -4.6600477892       -1.7446615811
 H         -3.6026084597       -3.9920745695       -0.1133767310
 H         -1.7248428098       -5.3207247996        0.9081037490
 H         -1.3034858495       -5.9893281093       -0.7238209911
 H         -0.9031728396       -3.6394232591       -1.5698972706
 O         -3.4944718400       -1.1897646498        1.3545572095
