  62
        -98.94328681
 C         -1.9097924410       -1.0184616498        0.5384373808
 C         -2.8391483526       -1.0401123515       -0.5303616348
 C         -4.1699270022       -0.4865295024       -0.2330211367
 C         -4.4245456654        0.0162246739        0.9879198423
 C         -5.7166180786        0.6575050660        1.4018031667
 C         -5.6930134099        2.1720610097        1.1525798127
 C         -5.2190050743        2.5609403375       -0.2478820886
 H         -5.2733743327        3.6495425126       -0.3187192626
 H         -4.1674625811        2.2852507598       -0.3584927896
 C         -6.0301196067        1.9331393378       -1.3900150276
 H         -6.9895631016        1.5784767498       -1.0115639693
 H         -6.2405239022        2.7040856849       -2.1342929603
 C         -5.3194371448        0.7915854127       -2.1193202094
 H         -5.8784027707        0.5726321738       -3.0330142514
 H         -4.3186160490        1.1142366159       -2.4174162034
 C         -5.1897895211       -0.5209813479       -1.3364889472
 H         -4.8493541755       -1.2906475601       -2.0351996808
 H         -6.1667921448       -0.8164442584       -0.9488537646
 H         -6.6973748532        2.5651210872        1.3208238381
 H         -5.0216330383        2.6329560854        1.8809397242
 H         -5.8643695430        0.4762957023        2.4678412269
 H         -6.5355129360        0.2010350298        0.8491835647
 O         -3.5011182042        0.0393413633        1.9829209459
 C         -2.2282269539       -0.4620746616        1.7806452925
 O         -1.4764549238       -0.3632461052        2.7724828697
 O         -2.5946140623       -1.4986603986       -1.6760320259
 C         -0.4898344291       -1.5465007811        0.3987772352
 C          0.3479882040       -0.5229645340       -0.3283512083
 C          0.3787203131       -0.4337795584       -1.7151869089
 C          1.1558696551        0.5275550593       -2.3371360349
 C          1.9233991048        1.4080174370       -1.5950064401
 C          1.8954879851        1.3279787531       -0.2092741158
 C          1.1112885134        0.3682529999        0.4137821723
 H          1.0791991706        0.3167141956        1.4945054788
 N          2.7121301409        2.1959979640        0.5487645415
 S          4.3579880680        2.0131274483        0.2659735317
 O          5.0173903821        2.4954337118        1.4584395154
 O          4.7035352225        2.6788973733       -0.9639748314
 C          4.5655306574        0.2502017331        0.0903927259
 C          4.6425161747       -0.3081201319       -1.1694293607
 C          4.6879348901       -1.6878699351       -1.2878702353
 C          4.6529132353       -2.4808126480       -0.1515557448
 C          4.5835742679       -1.9043274883        1.1077151517
 C          4.5329653272       -0.5255721517        1.2321811042
 H          4.4794493835       -0.0408740369        2.1942266804
 H          4.5599084914       -2.5236579198        1.9903031009
 H          4.6798527713       -3.5549951145       -0.2463245564
 H          4.7423869949       -2.1396336253       -2.2649898334
 H          4.6677962831        0.3433385989       -2.0270956073
 H          2.5291752598        2.1404238438        1.5410562645
 H          2.5477979407        2.1517864740       -2.0635522708
 H          1.1669338588        0.5904342769       -3.4146059345
 H         -0.2298277761       -1.1048256200       -2.2994012007
 H         -0.1032311029       -1.6202262178        1.4240136223
 C         -0.4112669198       -2.9173932457       -0.2416641880
 C          0.8901766369       -3.6579638859       -0.1814306381
 C         -0.2776539006       -4.1260917023        0.6325076017
 H         -0.7839097678       -5.0327390322        0.3366894497
 H         -0.2517422333       -3.9716479342        1.7015893507
 H          1.1877302496       -4.2442096220       -1.0367463738
 H          1.7107722930       -3.1783576168        0.3314336386
 H         -1.0101721226       -3.0160789998       -1.1365371371
