  62
        -98.93755914
 C         -2.2704999768        0.6704141056        0.2004796305
 C         -3.5722613090        1.1580903906        0.4840817911
 C         -4.6760220824        0.5358947705       -0.2578304563
 C         -4.3979363201       -0.4036557641       -1.1794556019
 C         -5.4261680223       -1.1682792173       -1.9606038062
 C         -5.8221062411       -2.4625594284       -1.2358132067
 C         -6.1710210993       -2.2640260730        0.2394089497
 H         -6.4618054303       -3.2382301300        0.6384085945
 H         -5.2733950036       -1.9527708494        0.7791088169
 C         -7.2945614325       -1.2498358733        0.4959532564
 H         -7.8590744431       -1.0831579263       -0.4220664331
 H         -7.9849373917       -1.6708028803        1.2298131085
 C         -6.8207538825        0.0950440183        1.0500776470
 H         -7.6976283659        0.6489310328        1.3954160493
 H         -6.1775660939       -0.0720489491        1.9179881038
 C         -6.0708967773        0.9956665660        0.0605370431
 H         -6.6578717669        1.1073654102       -0.8531517395
 H         -5.9623134198        1.9807615230        0.5235804716
 H         -6.6741195223       -2.9030281214       -1.7567775440
 H         -4.9861210272       -3.1632860982       -1.2980047322
 H         -6.3024174348       -0.5403434111       -2.1097058752
 H         -5.0009554934       -1.4220370833       -2.9330026154
 O         -3.1331341227       -0.7978891170       -1.4735887726
 C         -2.0363397345       -0.2805579278       -0.7933623784
 O         -0.9451341358       -0.7411979291       -1.1788774376
 O         -3.7981833158        2.0749358803        1.3179877195
 C         -1.1165134326        1.2649207371        0.9863110098
 C          0.0290716596        1.6155996282        0.0707210122
 C         -0.1949578714        2.5284791850       -0.9569586789
 C          0.8188961251        2.8703149962       -1.8294685632
 C          2.0791266122        2.3162010106       -1.6907275104
 C          2.3186138600        1.4161913741       -0.6589998198
 C          1.2962987657        1.0739439829        0.2153109329
 H          1.4986937935        0.3536373574        0.9885893105
 N          3.6123951969        0.8970979765       -0.4709232947
 S          3.8821664914       -0.6448892828        0.1524044105
 O          3.3300785357       -1.6598401389       -0.7172396152
 O          3.4664551307       -0.6802523839        1.5314312777
 C          5.6644895476       -0.6733762971        0.0702695837
 C          6.2940440784       -1.3348438763       -0.9666930488
 C          7.6789567812       -1.3229983913       -1.0275517608
 C          8.4068296816       -0.6514188047       -0.0571010910
 C          7.7610150731        0.0071881444        0.9788582532
 C          6.3770732661       -0.0018610482        1.0457128365
 H          5.8320378691        0.4879839985        1.8354760844
 H          8.3302522535        0.5259158237        1.7332244215
 H          9.4842059585       -0.6436718661       -0.1069138155
 H          8.1836257033       -1.8368330156       -1.8297881833
 H          5.6875143837       -1.8506722503       -1.6938503769
 H          4.2055635540        1.0498668753       -1.2757477298
 H          2.8705550276        2.5783503559       -2.3765759134
 H          0.6274329614        3.5702711808       -2.6291279288
 H         -1.1831634197        2.9541020013       -1.0705657642
 H         -1.5217561007        2.2067256844        1.3946857982
 C         -0.6904898155        0.4238066549        2.1805330346
 C         -1.6470130441       -0.5048858855        2.8648278746
 C         -0.4951229732       -1.0585878414        2.0836008564
 H          0.3338909635       -1.5009365173        2.6177248468
 H         -0.6901893695       -1.5268284914        1.1309561622
 H         -1.6186325143       -0.5684841639        3.9421367173
 H         -2.6385115474       -0.6010152562        2.4463133411
 H          0.0007979514        0.9574541949        2.8263316961
