  62
        -98.94083765
 C         -1.6892786981       -0.5592765310        0.1090210753
 C         -2.8603084476       -1.2245108456        0.5558587323
 C         -4.1053978379       -0.8841939009       -0.1407796072
 C         -4.0853811228        0.0216289876       -1.1348124143
 C         -5.2641352464        0.4521911016       -1.9651013051
 C         -6.1158219077        1.5524892126       -1.3174047508
 C         -6.9704778190        1.1000829866       -0.1327569991
 H         -7.6721385877        1.9083206618        0.0828840038
 H         -7.5577093738        0.2280535392       -0.4222516669
 C         -6.1719101005        0.7866505299        1.1402677930
 H         -6.6597492170        1.2519456573        1.9997709591
 H         -5.1750420282        1.2268802383        1.0616759876
 C         -6.0323249433       -0.7037362363        1.4505830146
 H         -5.4207524627       -0.8107433515        2.3500126029
 H         -7.0167094896       -1.1278386505        1.6603728981
 C         -5.3760219129       -1.5237296091        0.3320640408
 H         -5.1241341742       -2.5088481435        0.7322750561
 H         -6.0700024537       -1.6500717642       -0.4987111281
 H         -5.4558450755        2.3643621412       -1.0027754746
 H         -6.7812554830        1.9460052242       -2.0893384364
 H         -5.8911030255       -0.4119511909       -2.1870476817
 H         -4.8585097704        0.8381618345       -2.9029135793
 O         -2.9477603215        0.6577939090       -1.5186123884
 C         -1.7285031632        0.4095150702       -0.8950376784
 O         -0.7953885652        1.1101563538       -1.3289784195
 O         -2.8634394407       -2.0637546238        1.4947402079
 C         -0.3847816500       -0.8938957908        0.8098615489
 C          0.3711584326        0.3635358058        1.1541202644
 C         -0.1961856846        1.2591900995        2.0568901039
 C          0.4563412691        2.4286408489        2.3939479852
 C          1.6965586896        2.7199727785        1.8541484457
 C          2.2769865042        1.8282636148        0.9592697669
 C          1.6124307169        0.6592633256        0.6136102822
 H          2.0506067895        0.0067120491       -0.1214582593
 N          3.5581348662        2.0751775223        0.4590968108
 S          4.2425246664        1.2842275996       -0.8331219435
 O          5.5151218526        1.9542956181       -1.0070730636
 O          3.3911647850        1.2543801647       -1.9984837407
 C          4.5259646063       -0.3702099441       -0.2358374739
 C          4.9229904352       -0.5608342984        1.0727353853
 C          5.1487782110       -1.8524223180        1.5215094050
 C          4.9799507308       -2.9254060985        0.6597067118
 C          4.5895851500       -2.7170771745       -0.6540181002
 C          4.3617505104       -1.4277093643       -1.1082982100
 H          4.0468133326       -1.2180637184       -2.1187433818
 H          4.4588991283       -3.5519520032       -1.3241430223
 H          5.1520166529       -3.9299272876        1.0128114415
 H          5.4523752272       -2.0185990072        2.5425467379
 H          5.0407247026        0.2934093208        1.7181239235
 H          3.9414755556        2.9919514554        0.6261350415
 H          2.2091773992        3.6324946434        2.1172669777
 H         -0.0014620201        3.1209960254        3.0845828747
 H         -1.1657974854        1.0315144839        2.4789205310
 H         -0.6992813136       -1.3676377321        1.7552653177
 C          0.4683594467       -1.9192404741        0.0777144784
 C         -0.1608857254       -2.9883126239       -0.7627861380
 C          0.6425270447       -1.9023660963       -1.4100085736
 H          1.6129480809       -2.1510077538       -1.8136180584
 H          0.1284982280       -1.1343082464       -1.9672351895
 H          0.2562901180       -3.9830103057       -0.7236195655
 H         -1.2346753460       -2.9680724726       -0.8787095525
 H          1.3345275446       -2.2155134910        0.6625263509
