  62
        -98.93809609
 C          1.9711535858        1.3619455097        0.3445924075
 C          2.6725978507        0.7681569383       -0.7312191408
 C          3.8594872748       -0.0288738664       -0.3726957320
 C          4.2001435270       -0.1653524149        0.9201410018
 C          5.3854239318       -0.8901004987        1.5073976935
 C          5.7372387989       -2.2645334674        0.9214884131
 C          4.5377827935       -3.0876662176        0.4292121469
 H          4.5908343238       -4.0874702822        0.8644125911
 H          3.6052158660       -2.6342920806        0.7702758635
 C          4.5024685936       -3.2404848772       -1.0934444327
 H          5.5138294266       -3.4529657281       -1.4469805931
 H          3.8804231117       -4.1029170798       -1.3453080922
 C          3.9454696166       -2.0422128064       -1.8613829121
 H          2.8681091659       -1.9600044523       -1.6910453283
 H          4.0847982903       -2.2330091562       -2.9281873765
 C          4.5774644829       -0.6834580366       -1.5174625521
 H          5.6426392234       -0.7820256119       -1.3227612485
 H          4.4387986493       -0.0230701868       -2.3777035647
 H          6.4425167270       -2.1415708150        0.1008265178
 H          6.2601110882       -2.8164380466        1.7044333211
 H          6.2573807427       -0.2343657047        1.4286336490
 H          5.1564425745       -0.9937358390        2.5708343117
 O          3.4760382172        0.4021183164        1.9270495393
 C          2.3491372479        1.1639306063        1.6707376753
 O          1.7750979463        1.5951398768        2.6924731510
 H         -0.1690569330       -0.1259374946        0.9313873057
 C         -0.6665844796        0.1616961978        0.0127329165
 C         -0.3198488502        1.3643342035       -0.5924616768
 C         -0.9767969288        1.7316414766       -1.7585374375
 C         -1.9286800152        0.8963132260       -2.3192901275
 C         -2.2545952456       -0.3091150383       -1.7270067829
 C         -1.6198853619       -0.6749204827       -0.5457677564
 N         -1.9617655764       -1.8861265063        0.0788035342
 S         -3.5854505204       -2.2756030993        0.1949483795
 O         -3.6919782596       -3.1068374374        1.3736727747
 O         -4.0288823501       -2.8770176214       -1.0381286044
 C         -4.4284868204       -0.7225360429        0.4439064393
 C         -4.0856372580        0.0357847197        1.5458525359
 C         -4.7092009807        1.2576254069        1.7387998626
 C         -5.6609971451        1.6979199424        0.8315457638
 C         -5.9987311809        0.9221707226       -0.2662525970
 C         -5.3763142112       -0.2997731266       -0.4655858029
 H         -5.6057847145       -0.9331476681       -1.3069321123
 H         -6.7408479106        1.2659811713       -0.9684770548
 H         -6.1419119179        2.6512166413        0.9836640145
 H         -4.4471629627        1.8614659877        2.5928944788
 H         -3.3446529771       -0.3349358807        2.2363598589
 H         -1.4799470155       -2.0512016092        0.9498503886
 H         -2.9793713419       -0.9778527288       -2.1621336944
 H         -2.4211474649        1.1873304183       -3.2343252410
 H         -0.7356572796        2.6659542715       -2.2371964301
 C          0.7389870090        2.2079729413        0.0760899700
 H          0.3583144580        2.5077410956        1.0634280326
 C          1.1109104167        3.4527608805       -0.7009013901
 C          0.2823155053        4.6944335370       -0.5721315100
 C          1.6463912651        4.6363334434        0.0453118106
 H          2.4431243686        5.2109737072       -0.4026786954
 H          1.7214915965        4.5530536106        1.1200730354
 H          0.1430495905        5.3146769013       -1.4445346595
 H         -0.5725212252        4.6587647892        0.0859175940
 H          1.5545016572        3.2269685860       -1.6633970341
 O          2.3363048339        0.9023891246       -1.9354824787
