  62
        -98.94346592
 C         -1.8722826918       -0.7389916429       -0.7391396922
 C         -2.1634877504       -0.1016103021        0.4912463864
 C         -3.5835264375       -0.0619213650        0.8634314417
 C         -4.5027276456       -0.6308368853        0.0623341265
 C         -5.9839874030       -0.6950693266        0.3198216479
 C         -6.7479609042        0.5653651128       -0.1084373511
 C         -6.5338799308        1.7898461466        0.7821987112
 H         -7.2888150803        2.5265287840        0.5002087823
 H         -6.7177233029        1.5176104615        1.8219977024
 C         -5.1453294904        2.4314405428        0.6530581124
 H         -4.6666398702        2.0818251346       -0.2645277695
 H         -5.2521494772        3.5149894917        0.5654946145
 C         -4.2101219970        2.1619993730        1.8319176850
 H         -4.6164095089        2.6232623769        2.7348003230
 H         -3.2460022023        2.6299412991        1.6182563454
 C         -3.9614712798        0.6743513286        2.1131632269
 H         -3.1247693067        0.5914425825        2.8111320345
 H         -4.8435014411        0.2247604825        2.5688033386
 H         -6.4706941560        0.8092081657       -1.1366043699
 H         -7.8122607951        0.3188651080       -0.1012705761
 H         -6.3633001434       -1.5403689432       -0.2585401262
 H         -6.1641325185       -0.8894217909        1.3775266330
 O         -4.1768686459       -1.2528316205       -1.1028311958
 C         -2.8623222930       -1.3095132265       -1.5378144980
 O         -2.7058324852       -1.8950039029       -2.6292798229
 O         -1.2880043232        0.4026198157        1.2403741938
 C         -0.4361643518       -0.8197263313       -1.2218933107
 C          0.4260721918       -1.5182427229       -0.1983659567
 C         -0.0484410746       -2.6766633830        0.4119592572
 C          0.7119136406       -3.3418714759        1.3531908015
 C          1.9705404740       -2.8777894555        1.6932796524
 C          2.4610928699       -1.7326570513        1.0793489271
 C          1.6889646174       -1.0594681461        0.1416960862
 H          2.0885501109       -0.1744156307       -0.3239792440
 N          3.7254856043       -1.2284982606        1.4134183404
 S          4.7092415758       -0.5552056274        0.2426528639
 O          4.5530368071       -1.2154513112       -1.0323860212
 O          6.0373295086       -0.5980283091        0.8178051837
 C          4.1926471297        1.1444891259        0.1235651633
 C          4.2492161014        1.7710255747       -1.1057211541
 C          3.8910489747        3.1071602373       -1.1957900598
 C          3.4844559711        3.7900722743       -0.0600873218
 C          3.4357946507        3.1469123335        1.1673895186
 C          3.7968785801        1.8126322226        1.2651453671
 H          3.7649805947        1.2831898982        2.2025996501
 H          3.1153327192        3.6799404213        2.0481225666
 H          3.2023419990        4.8286346406       -0.1327307621
 H          3.9284818746        3.6087919134       -2.1499469310
 H          4.5595909230        1.1985807714       -1.9655261229
 H          4.2487785659       -1.7821603215        2.0754798705
 H          2.5662135531       -3.3964128303        2.4290892235
 H          0.3250909067       -4.2336437668        1.8233622149
 H         -1.0293139354       -3.0449685948        0.1423597187
 H         -0.4519926411       -1.4405788080       -2.1303382209
 C          0.0620984972        0.5639997311       -1.5860467003
 C          1.0917470740        0.7435147933       -2.6593887339
 C         -0.3295335916        1.1471310032       -2.9092792393
 H         -0.5655189005        2.1992992446       -2.9603869335
 H         -0.9317663492        0.5317355928       -3.5621838548
 H          1.8300605253        1.5213690535       -2.5361688564
 H          1.4655371874       -0.1435085946       -3.1488874126
 H          0.0911985790        1.2317275402       -0.7323787686
