  62
        -98.94607881
 C         -0.9588085494       -1.6507316205        0.6188287604
 C         -1.7356584395       -1.5542347303       -0.5604973395
 C         -2.8688006497       -0.6195199006       -0.5043089692
 C         -3.0851768899        0.0892976190        0.6186520311
 C         -4.2085128401        1.0665637386        0.8098344814
 C         -3.8003305905        2.4925626788        0.4178419518
 C         -3.0988225406        2.5847082194       -0.9365687682
 H         -2.8769131409        3.6379191195       -1.1177070879
 H         -2.1418516805        2.0604983697       -0.8798301284
 C         -3.9154462405        2.0302220595       -2.1121141483
 H         -3.8421966508        2.7281872698       -2.9486008781
 H         -4.9684407605        1.9663457592       -1.8350900983
 C         -3.4460298802        0.6690013398       -2.6283803288
 H         -2.3689980402        0.6968606202       -2.8126821888
 H         -3.9370741002        0.4815246500       -3.5870857888
 C         -3.7479361498       -0.5292084305       -1.7196566291
 H         -4.8022994098       -0.5196190509       -1.4352526790
 H         -3.5557744996       -1.4396807403       -2.2948363694
 H         -4.6959894007        3.1162896786        0.4097558620
 H         -3.1224818106        2.8765119888        1.1814513819
 H         -5.0598855801        0.7441728386        0.2130785514
 H         -4.4934295700        1.0560131582        1.8634200514
 O         -2.2815872098        0.0106719189        1.7109622410
 C         -1.2025298995       -0.8577838209        1.7393074807
 O         -0.5479909395       -0.8311469610        2.8022450906
 H          1.3003705202       -0.2528809798        0.3153141307
 C          1.7006855504       -0.9687913595       -0.3875150396
 C          1.2334581207       -2.2774331496       -0.3609510999
 C          1.7541991709       -3.1884901092       -1.2696976402
 C          2.7138591507       -2.7901781387       -2.1845334301
 C          3.1927324504       -1.4936619186       -2.1914699298
 C          2.6846431002       -0.5752719590       -1.2784880395
 N          3.1495404598        0.7478533111       -1.2530022592
 S          3.3645724497        1.5434697408        0.2058020911
 O          4.4177142495        2.5006366211       -0.0631388587
 O          3.6075851400        0.6179396905        1.2861446708
 C          1.8504662495        2.4438313603        0.4579934814
 C          1.5694071892        3.4755643105       -0.4172369483
 C          0.4264093090        4.2313394301       -0.2193616680
 C         -0.4136256209        3.9452656096        0.8465204220
 C         -0.1242764905        2.9003152994        1.7096731117
 C          1.0203905997        2.1418665498        1.5181753614
 H          1.2688671899        1.3237800497        2.1780390111
 H         -0.7790357404        2.6599915190        2.5330188016
 H         -1.2968407310        4.5431343493        1.0074184122
 H          0.1945411188        5.0420338203       -0.8909630577
 H          2.2574609491        3.6748888309       -1.2218686783
 H          3.9028132898        0.9431991715       -1.8963207591
 H          3.9524033203       -1.1894585882       -2.8954837398
 H          3.1041731409       -3.5044248384       -2.8936747904
 H          1.4063615811       -4.2081608493       -1.2674054205
 C          0.1994840009       -2.6297824802        0.6809338701
 H          0.6655966009       -2.4891009003        1.6679797501
 C         -0.3104645188       -4.0523045703        0.5812945497
 C          0.4630957416       -5.1744986203        1.2032753493
 C         -0.8279250085       -4.7238775508        1.8163027695
 H         -1.6924171884       -5.3650579410        1.7313861094
 H         -0.7897462586       -4.1631256210        2.7392838097
 H          1.3807669315       -4.9250984002        1.7147495393
 H          0.4839365718       -6.1293771201        0.7000533690
 H         -0.8352828788       -4.2431997002       -0.3474577303
 O         -1.5082981694       -2.2253422400       -1.6005393197
