  62
        -98.93821783
 C         -1.7671628673       -0.1702210017       -0.9009641717
 C         -2.9330162871        0.6314708776       -0.9855544844
 C         -4.2031507753       -0.0543397113       -0.6885204910
 C         -4.1984557555       -1.3606608349       -0.3715017386
 C         -5.4110441770       -2.1587099910        0.0094758561
 C         -5.6359780052       -2.1364893095        1.5278657209
 C         -5.5839308823       -0.7364367072        2.1395004897
 H         -5.7851661512       -0.8405985276        3.2079457824
 H         -4.5698729467       -0.3420430370        2.0410603068
 C         -6.5771383096        0.2611199483        1.5271452025
 H         -7.0616753619        0.8134722207        2.3351187228
 H         -7.3585521939       -0.2768232258        0.9891388224
 C         -5.9438141685        1.2973898105        0.5968684363
 H         -6.6867904029        2.0742859020        0.3973004720
 H         -5.0998855811        1.7748338633        1.1012516943
 C         -5.4587297017        0.7689682244       -0.7590254471
 H         -6.2608144346        0.2091232026       -1.2441420706
 H         -5.2153786153        1.6334338418       -1.3838282823
 H         -4.8621999846       -2.7452402470        2.0012435040
 H         -6.6046959726       -2.5925472933        1.7401342197
 H         -6.2816995734       -1.7548267231       -0.5035143506
 H         -5.2578562924       -3.1905361775       -0.3111541512
 O         -3.0619584471       -2.1011056072       -0.3150734700
 C         -1.8287536581       -1.5261370383       -0.5660028694
 O         -0.8686932984       -2.3174295209       -0.4717453879
 H          2.1110619741       -0.0423472516       -0.2173260410
 C          1.5608626654        0.6537546500        0.3964064881
 C          0.2478951499        0.9617203384        0.0729635879
 C         -0.4560283733        1.8364678313        0.8939292048
 C          0.1497565613        2.3899791851        2.0072609384
 C          1.4703335698        2.1051727562        2.3076695587
 C          2.1830260501        1.2340011613        1.4927329258
 N          3.5221882925        0.9217404927        1.7612515065
 S          4.6049197246        0.7673265577        0.4919094673
 O          5.8974000500        1.0406993131        1.0819987974
 O          4.2250245393        1.5955171570       -0.6276515801
 C          4.5233474655       -0.9545472999        0.0504132387
 C          4.2453921891       -1.3186075719       -1.2519173063
 C          4.1957601594       -2.6653295154       -1.5755001310
 C          4.4259598963       -3.6188510499       -0.5961301415
 C          4.7086605379       -3.2366577208        0.7066497467
 C          4.7590697188       -1.8921370952        1.0362977500
 H          4.9790704470       -1.5560573156        2.0358275336
 H          4.8866399188       -3.9823736580        1.4646549504
 H          4.3833298451       -4.6660584534       -0.8508517403
 H          3.9740523607       -2.9640250486       -2.5875945403
 H          4.0675045379       -0.5455579817       -1.9835148271
 H          3.9255471711        1.4085946900        2.5481578596
 H          1.9464038350        2.5531306621        3.1667586773
 H         -0.4075267027        3.0649760504        2.6395167606
 H         -1.4752625662        2.0884275941        0.6440406755
 C         -0.3682903166        0.3607448160       -1.1639138230
 H          0.2297141215       -0.5271263559       -1.4253929845
 C         -0.2984144214        1.3079965765       -2.3550296020
 C         -0.1121068759        2.7868063725       -2.2312004093
 C          1.0071973540        1.9359375656       -2.7471632750
 H          1.2560833941        1.9913170256       -3.7965760375
 H          1.8612105316        1.7863547375       -2.1013375009
 H         -0.6516064819        3.4186526592       -2.9201480279
 H         -0.0170851232        3.2080870385       -1.2428730243
 H         -0.9365064363        0.9743863619       -3.1677084652
 O         -2.9389930279        1.8520573837       -1.2859541868
