  62
        -98.94053096
 C         -1.7590706098       -0.7844762993        0.1839038308
 C         -3.0681945399       -1.0535321488        0.6432731809
 C         -4.0314333397        0.0597243813        0.5801880602
 C         -3.6312570295        1.2520399610        0.0995310395
 C         -4.3703297492        2.5659841910       -0.0470431514
 C         -5.8907979992        2.6258132514        0.0733787985
 C         -6.6497031593        1.9254898308       -1.0533682011
 H         -7.7145073493        1.9432182111       -0.8109819912
 H         -6.5089881991        2.4968176402       -1.9744347615
 C         -6.2289522495        0.4856041105       -1.3370738902
 H         -6.8422080096        0.1146146202       -2.1628902600
 H         -5.1907974795        0.4658838802       -1.6751341301
 C         -6.3886762198       -0.4847192787       -0.1683953796
 H         -6.2051885699       -1.4926222490       -0.5505977390
 H         -7.4154046498       -0.4498190483        0.2010654603
 C         -5.4329180098       -0.2582526882        1.0157115803
 H         -5.8108501597        0.5080291423        1.6882189998
 H         -5.3727383500       -1.1917392178        1.5829875909
 H         -6.2078352193        2.2459926620        1.0400982887
 H         -6.1633085090        3.6843728614        0.0450131478
 H         -3.9378245691        3.2347382314        0.7053082382
 H         -4.0731838291        2.9665681004       -1.0214617516
 O         -2.3493703394        1.4662706305       -0.3208693906
 C         -1.3900622796        0.4676918003       -0.3009888999
 O         -0.2749107795        0.8184990398       -0.7292321701
 H          1.9538218700       -1.9246485904       -0.5078236483
 C          1.7735298400       -1.5558661498        0.4874012115
 C          0.4860635300       -1.4704520992        0.9921162914
 C          0.3086404900       -0.9868445184        2.2869107511
 C          1.3894629200       -0.5871415281        3.0474821309
 C          2.6725338100       -0.6535245387        2.5310591310
 C          2.8618565400       -1.1400012095        1.2443411513
 N          4.1552498800       -1.2465256001        0.6984974314
 S          4.5133866103       -0.4983505510       -0.7561812990
 O          3.6611433102       -1.0096812915       -1.7969817087
 O          5.9340576202       -0.7085635614       -0.9330172688
 C          4.2062280206        1.2343951792       -0.4630268401
 C          5.2839996907        2.0518544192       -0.1789565205
 C          5.0586132609        3.3879441494        0.1073222287
 C          3.7621016510        3.8808706596        0.1149931783
 C          2.6925854109        3.0457225796       -0.1669616613
 C          2.9093893806        1.7074829494       -0.4597051104
 H          2.0818403605        1.0520533594       -0.6816859001
 H          1.6793446009        3.4154540498       -0.1632839316
 H          3.5832922212        4.9205621798        0.3403964576
 H          5.8902793510        4.0386962094        0.3247962183
 H          6.2739020906        1.6251842690       -0.2001577402
 H          4.8923473300       -1.0481532098        1.3610706214
 H          3.5189234901       -0.3359971285        3.1211155709
 H          1.2338961100       -0.2144315175        4.0486424106
 H         -0.6946308900       -0.9277801880        2.6868798210
 C         -0.7259287901       -1.8953960095        0.2020057216
 H         -1.2051910502       -2.7327892091        0.7310294821
 C         -0.4062466001       -2.3359164804       -1.2110744181
 C          0.0443547497       -3.7395241107       -1.4797852173
 C         -1.3254001802       -3.2987886907       -1.8982608576
 H         -1.5256911001       -3.1597852713       -2.9501837977
 H         -2.1739292603       -3.6602913302       -1.3356861574
 H          0.7904247697       -3.9011110813       -2.2435375871
 H          0.1260898695       -4.4081004602       -0.6360825968
 H          0.0229110701       -1.5416493209       -1.8131334986
 O         -3.4181718202       -2.1750064585        1.1002292816
