  62
        -98.94174277
 C         -1.7102548869       -0.4651315649       -0.3077305375
 C         -2.8230369437       -1.2899195386        0.0018206631
 C         -4.1444711799       -0.7514874054       -0.3368265946
 C         -4.2423034753        0.4659007200       -0.9001611455
 C         -5.5154123199        1.1438524067       -1.3288090743
 C         -6.2422852841        1.8813465105       -0.1958647975
 C         -6.9332809661        0.9805556176        0.8287204959
 H         -7.5793705613        1.6204448960        1.4330489895
 H         -7.5751202864        0.2679680793        0.3096849864
 C         -5.9725237199        0.2284469531        1.7603115733
 H         -6.3253022020        0.3111703976        2.7908035096
 H         -4.9865701529        0.6975191995        1.7212895406
 C         -5.8249819668       -1.2611771552        1.4501558037
 H         -5.0958435143       -1.6856103791        2.1448509555
 H         -6.7796019651       -1.7659031612        1.6140657790
 C         -5.3508585028       -1.5652339253        0.0230139946
 H         -5.0682950163       -2.6196448220       -0.0267622595
 H         -6.1569159137       -1.3848966415       -0.6879762838
 H         -5.5263056849        2.5308990804        0.3131458834
 H         -7.0000174016        2.5194217127       -0.6566024971
 H         -6.1871475716        0.4115835201       -1.7778840883
 H         -5.2367289231        1.8742165499       -2.0916137289
 O         -3.1547152769        1.2353929088       -1.1655588303
 C         -1.8662189403        0.8080482635       -0.8582183084
 O         -0.9871638083        1.6478675477       -1.1251343182
 O         -2.7150264526       -2.4240306610        0.5383773865
 C         -0.3318414825       -0.9991802389        0.0387110185
 C          0.4820537587        0.0489967840        0.7521904285
 C          0.0882824743        0.4536010262        2.0255456993
 C          0.7983377079        1.4190930431        2.7114937644
 C          1.9308537592        1.9857356907        2.1525769899
 C          2.3307856803        1.5905175942        0.8823491945
 C          1.6075217460        0.6285443693        0.1896818809
 H          1.9107410310        0.3768655219       -0.8120020708
 N          3.4728655208        2.1434467859        0.2889733277
 S          4.4365187571        1.2194565317       -0.7085467310
 O          5.7402293881        1.8444142730       -0.6251010363
 O          3.8738677825        1.1272588378       -2.0319102519
 C          4.4906580378       -0.3985416383        0.0445308333
 C          4.1598643588       -1.5094715802       -0.7037113292
 C          4.2012293423       -2.7594342967       -0.1063469929
 C          4.5688184117       -2.8756436827        1.2249696265
 C          4.9049718827       -1.7506599519        1.9624372854
 C          4.8683240507       -0.4994961606        1.3689974107
 H          5.1317399806        0.3917340335        1.9145693578
 H          5.1930823688       -1.8449634525        2.9969527520
 H          4.5943171267       -3.8489061006        1.6890563447
 H          3.9425614380       -3.6354989574       -0.6798639969
 H          3.8728703648       -1.3726781796       -1.7342840751
 H          4.0061872442        2.7711438954        0.8710756553
 H          2.4899296530        2.7387064581        2.6868192907
 H          0.4748698341        1.7291931939        3.6936992873
 H         -0.7938356110        0.0077817428        2.4647441454
 H         -0.5312967799       -1.8160947321        0.7524710626
 C          0.4111346682       -1.6236242575       -1.1324170406
 C         -0.3238264769       -2.3069713366       -2.2451103284
 C          0.4033024425       -1.0231419348       -2.5048227924
 H          1.3160309686       -1.0484161952       -3.0831985603
 H         -0.1724062341       -0.1231174181       -2.6557134607
 H          0.0852219835       -3.2220259926       -2.6459300809
 H         -1.4036184602       -2.2840740915       -2.2207961867
 H          1.3397983613       -2.0871276758       -0.8125800300
