  62
        -98.93759155
 C          1.8937960718        0.6149672073       -0.1259808811
 C          2.9312369465        0.7422182130        0.8358340722
 C          4.1062999479       -0.1228609360        0.6625466902
 C          4.1325483537       -0.9868778074       -0.3679479166
 C          5.2812082818       -1.8852395521       -0.7285364214
 C          6.3854746654       -1.0724733090       -1.4341529183
 C          7.6951780527       -0.9768203797       -0.6513585948
 H          8.2262152143       -1.9277953417       -0.7305444785
 H          8.3103424440       -0.2149759947       -1.1349400731
 C          7.5602633547       -0.6385343978        0.8364221751
 H          8.5532029146       -0.3499783044        1.1877914973
 H          7.2824088242       -1.5348499399        1.3930588794
 C          6.5703371025        0.4811762060        1.1829281303
 H          6.4250280978        1.1437820485        0.3294857073
 H          7.0059948253        1.0837050628        1.9825416662
 C          5.2001105629       -0.0081115547        1.6879703053
 H          5.3207914101       -0.9663647571        2.2010593510
 H          4.8211036709        0.7102382392        2.4208935878
 H          6.6004172856       -1.5185240124       -2.4064005603
 H          6.0011925870       -0.0687347183       -1.6273775340
 H          5.6699939758       -2.3622020070        0.1685014330
 H          4.8934725524       -2.6571038289       -1.3938442343
 O          3.1196108325       -1.0878886201       -1.2641806997
 C          1.9801124097       -0.3017219398       -1.1730352486
 O          1.1526067353       -0.5310697446       -2.0790835120
 H         -0.7211762981       -0.5798503914       -0.9178332525
 C         -1.0812098104       -0.2733822147        0.0528841889
 C         -0.4600544901        0.7810339008        0.7074553363
 C         -0.9288430879        1.1532482863        1.9617948166
 C         -1.9865864113        0.4800185748        2.5487394790
 C         -2.5984992428       -0.5750836740        1.8968906610
 C         -2.1359116926       -0.9543216712        0.6428425099
 N         -2.7547692573       -2.0213684130       -0.0318686059
 S         -4.4265213197       -2.0044399122       -0.1083108677
 O         -4.9700975876       -2.5559580131        1.1085023731
 O         -4.7660839654       -2.7099872897       -1.3241495872
 C         -4.8663203181       -0.2793419171       -0.2346060228
 C         -4.3662206816        0.4431270581       -1.2999698920
 C         -4.6633799606        1.7927642684       -1.3917283070
 C         -5.4506282977        2.3945618080       -0.4219066396
 C         -5.9497272060        1.6542480515        0.6381441591
 C         -5.6537776417        0.3040150945        0.7367456498
 H         -6.0157276826       -0.3082550394        1.5465519684
 H         -6.5634890696        2.1241673538        1.3895704708
 H         -5.6754592444        3.4468504489       -0.4947772874
 H         -4.2759085679        2.3695110092       -2.2161402266
 H         -3.7578689104       -0.0528265074       -2.0395775082
 H         -2.3458487804       -2.2176520154       -0.9338639287
 H         -3.4177476174       -1.1175142958        2.3406271387
 H         -2.3373897125        0.7783321481        3.5247038833
 H         -0.4477009609        1.9674103983        2.4835211824
 C          0.6860136472        1.5195920678        0.0577369549
 H          1.0182926456        2.2977661189        0.7574868573
 C          0.2339935346        2.1898480031       -1.2257567088
 C         -0.6143877601        3.4217626700       -1.1408225378
 C          0.8088995923        3.5217330173       -1.5993865596
 H          1.0055671588        3.7230267362       -2.6418338380
 H          1.5328129745        3.9599111197       -0.9277974197
 H         -0.8578426175        3.7938976161       -0.1575200101
 H         -1.3984064996        3.5570746002       -1.8694107300
 H          0.0344911488        1.4929705428       -2.0290271952
 O          2.8749426855        1.5528258047        1.7987296283
