  62
        -98.94462112
 C         -2.1313799076       -0.9884349806       -0.4515765431
 C         -3.1860783883       -1.2374058682        0.4616721959
 C         -4.4465982003       -0.5313137231        0.2011867028
 C         -4.5308351355        0.2930394929       -0.8589733599
 C         -5.7324773097        1.1223537672       -1.2059709467
 C         -5.6555083462        2.5103421033       -0.5545978266
 C         -5.3262780015        2.4753978709        0.9379096751
 H         -4.3110186095        2.0938862065        1.0700474474
 H         -5.3292104536        3.5074636184        1.2953457981
 C         -6.2970053007        1.6386149343        1.7830022109
 H         -6.5507737225        2.2012538544        2.6838908555
 H         -7.2235837642        1.4766046362        1.2310670948
 C         -5.7382688320        0.2906311114        2.2422664946
 H         -6.4111973668       -0.1149493510        3.0024558674
 H         -4.7638769975        0.4402246058        2.7140766637
 C         -5.5862853957       -0.7754685529        1.1499462311
 H         -5.3669766910       -1.7268487792        1.6432698280
 H         -6.5262427797       -0.8801100553        0.6044241698
 H         -6.6106023376        3.0164290681       -0.7067821766
 H         -4.8797449941        3.0885303094       -1.0621446402
 H         -6.6319738039        0.6049907279       -0.8779803042
 H         -5.7672947056        1.2413644394       -2.2902271062
 O         -3.5011639961        0.5020347031       -1.7173570767
 C         -2.2738671682       -0.1200765976       -1.5338679539
 O         -1.4224463255        0.1750324127       -2.3939800602
 O         -3.0772034919       -2.0147350593        1.4471665167
 C         -0.7968717576       -1.6749506802       -0.2096941895
 C          0.2132242296       -0.6222036393        0.1727272235
 C          0.1719181404       -0.0872613187        1.4579752336
 C          1.0436205717        0.9163621719        1.8352390317
 C          1.9745014846        1.4109889801        0.9381475247
 C          2.0245628371        0.8831098839       -0.3449478851
 C          1.1574651648       -0.1366720361       -0.7178930747
 H          1.1994883383       -0.5253790231       -1.7227627331
 N          2.9642921268        1.3816453315       -1.2607006792
 S          4.5317071482        1.6330398202       -0.7400244534
 O          4.6148712805        2.8807542115       -0.0217941299
 O          5.3477152308        1.5344832395       -1.9297383085
 C          4.8746335654        0.2762313087        0.3671104010
 C          4.8325007485       -1.0056630609       -0.1448129954
 C          5.0624370769       -2.0747959195        0.7052635522
 C          5.3270789350       -1.8452962907        2.0470011309
 C          5.3700399742       -0.5524977794        2.5447517119
 C          5.1402772176        0.5208998086        1.6987758058
 H          5.1635795845        1.5415295106        2.0444007697
 H          5.5779954454       -0.3769109868        3.5879356447
 H          5.5018259701       -2.6800082251        2.7073541333
 H          5.0311922472       -3.0813524079        0.3200788738
 H          4.6301582090       -1.1490131204       -1.1940171394
 H          2.9305576574        0.9430507254       -2.1684625404
 H          2.6493271435        2.2073542638        1.2069390756
 H          0.9971754269        1.3224699325        2.8342431237
 H         -0.5645535763       -0.4640668089        2.1541171602
 H         -0.9605675686       -2.3228153766        0.6621763941
 C         -0.3815361177       -2.5352969916       -1.3837609501
 C          0.6878428540       -3.5683417095       -1.1950193802
 C         -0.7374718314       -3.9905195389       -1.3841625782
 H         -1.0215894054       -4.4498985059       -2.3191487130
 H         -1.2764740534       -4.3729655127       -0.5298940113
 H          1.3855246905       -3.7431420146       -1.9997782852
 H          1.1164093326       -3.6635053115       -0.2090345076
 H         -0.4288838484       -2.0165123749       -2.3337231789
