  62
        -98.94528616
 C          1.7482355148        0.4880227930        0.8396774903
 C          2.0707935752       -0.0622627983       -0.4264910330
 C          2.1323568320       -1.5319002534       -0.4913380700
 C          1.8297713947       -2.2582243089        0.5982855912
 C          1.8414120857       -3.7577937670        0.6693585479
 C          0.4700425705       -4.3607236272        0.3387320800
 C         -0.1502607025       -3.8307465261       -0.9541942149
 H         -1.0846100657       -4.3745878431       -1.1143289302
 H         -0.4164279340       -2.7778545368       -0.8367632279
 C          0.7405390822       -3.9694527134       -2.1960125268
 H          0.1267343577       -4.3295345510       -3.0244435731
 H          1.5192582743       -4.7133515757       -2.0197281914
 C          1.3777240029       -2.6554389287       -2.6535726146
 H          0.6109193534       -1.8764071218       -2.6862292979
 H          1.7536780052       -2.7931587994       -3.6714331938
 C          2.5456136419       -2.1470174328       -1.7981134130
 H          3.2631452683       -2.9552205342       -1.6353730374
 H          3.0448217862       -1.3512193034       -2.3590761693
 H          0.5815295851       -5.4447245910        0.2689250769
 H         -0.2152267629       -4.1436201313        1.1616184375
 H          2.5909257765       -4.1385522557       -0.0220500420
 H          2.1179467210       -4.0476144744        1.6850346973
 O          1.4511691151       -1.6970904687        1.7760068316
 C          1.3902875825       -0.3192465178        1.9211207650
 O          1.0042871890        0.0563082141        3.0460873830
 H         -0.7786196705        1.1802316186        0.4106827879
 C         -0.4722059935        1.9855405285       -0.2408732363
 C          0.7756273166        2.5658028086       -0.0504615106
 C          1.1575185695        3.6078334081       -0.8832519495
 C          0.3137061698        4.0319815156       -1.8960841643
 C         -0.9057665999        3.4171258262       -2.1129841411
 C         -1.2976610992        2.3747760016       -1.2801516190
 N         -2.5219539306        1.7108944562       -1.4568860240
 S         -2.5907586147        0.0580930525       -1.1851783482
 O         -1.3468409703       -0.5980726913       -1.5058563069
 O         -3.7510839018       -0.3779241593       -1.9351034797
 C         -2.9519368441       -0.0833838031        0.5519683591
 C         -2.1634431318       -0.8808329941        1.3565465527
 C         -2.4606635615       -0.9799585410        2.7060944390
 C         -3.5433533897       -0.2862626039        3.2238979374
 C         -4.3326099528        0.5042831202        2.4016786407
 C         -4.0366774476        0.6093616058        1.0523550400
 H         -4.6238069645        1.2132930328        0.3809110553
 H         -5.1734603213        1.0413176432        2.8101338355
 H         -3.7687576276       -0.3622391086        4.2758959302
 H         -1.8333433028       -1.5824945846        3.3436961199
 H         -1.3195725133       -1.3949350904        0.9216219794
 H         -3.0360127333        1.9773017071       -2.2841349260
 H         -1.5458724040        3.7303892556       -2.9238627508
 H          0.6218159497        4.8396920196       -2.5428355460
 H          2.1239272495        4.0686529263       -0.7606741801
 C          1.6268705431        1.9892506974        1.0535957530
 H          1.0625250638        2.0913099233        1.9958962107
 C          2.9448876097        2.7183244141        1.2615973502
 C          4.1447981599        2.0025640220        1.8048459903
 C          4.1420419368        2.4933908056        0.3897392693
 H          4.7611059080        3.3440226919        0.1436648432
 H          4.0506038245        1.7737326314       -0.4076073792
 H          4.0560831173        0.9393669022        1.9766707275
 H          4.7632304122        2.5124294221        2.5282928857
 H          2.7907288329        3.7312891379        1.6209753541
 O          2.3214486416        0.6246371917       -1.4498423698
