  62
        -98.93948822
 C          2.6416082512        1.2183503120        0.2421453995
 C          2.5163853150        0.1703030347       -0.7033980950
 C          3.7018413156       -0.6873856936       -0.8681394259
 C          4.8092434746       -0.4377705438       -0.1477708136
 C          6.0618360694       -1.2634173234       -0.1816299837
 C          6.0268954299       -2.3674476225        0.8845291184
 C          4.7328812142       -3.1815601578        0.8895965246
 H          4.8351343356       -3.9484472764        1.6605114843
 H          3.9047779886       -2.5346046116        1.1885349068
 C          4.3954596408       -3.8471134853       -0.4519117445
 H          5.2872136969       -3.8905394856       -1.0783302458
 H          4.0819355713       -4.8758857075       -0.2626243115
 C          3.2629371559       -3.1726903986       -1.2285555034
 H          2.9625958585       -3.8411456381       -2.0397866804
 H          2.3964075982       -3.0413902176       -0.5753101203
 C          3.6010742801       -1.8147933593       -1.8566670888
 H          4.5181894115       -1.8976531948       -2.4434585224
 H          2.7824061542       -1.5491649901       -2.5319383799
 H          6.1431643130       -1.9036338655        1.8668622403
 H          6.8768198543       -3.0323788448        0.7204783864
 H          6.1752197813       -1.7021969846       -1.1710006680
 H          6.9117936527       -0.6076787982        0.0149543842
 O          4.8942002395        0.5808512367        0.7460433938
 C          3.8120050734        1.4122590635        0.9809629161
 O          4.0117477717        2.2736543842        1.8607479163
 H         -0.8066760397        2.1250075440       -0.9837172110
 C         -0.8624668494        1.4665343589       -0.1307303508
 C          0.2168156585        1.3613075639        0.7310260568
 C          0.1243841198        0.4834541738        1.8077785218
 C         -1.0132731262       -0.2741640800        2.0075350198
 C         -2.0851315823       -0.1738520834        1.1377250164
 C         -2.0053331122        0.7004535343        0.0633299198
 N         -3.0819588176        0.7933735236       -0.8327161075
 S         -4.6343904302        0.9680660536       -0.2288543007
 O         -5.3803248636        1.6172801739       -1.2850705621
 O         -4.6307684474        1.6314729925        1.0546307874
 C         -5.2217540537       -0.7034959418       -0.0510111360
 C         -5.1920713576       -1.5256900738       -1.1602798465
 C         -5.6567120593       -2.8257453120       -1.0422591069
 C         -6.1430246639       -3.2785242675        0.1752534696
 C         -6.1688926941       -2.4398689567        1.2789014029
 C         -5.7048816318       -1.1382982340        1.1674732807
 H         -5.7021065562       -0.4523355863        1.9997203714
 H         -6.5475082204       -2.7937046482        2.2243990795
 H         -6.5040669190       -4.2910150105        0.2641917433
 H         -5.6376402125       -3.4809711040       -1.8982926318
 H         -4.8092901228       -1.1358458982       -2.0887148148
 H         -2.9157913946        1.4083706359       -1.6154531421
 H         -2.9741883806       -0.7654873201        1.2832844457
 H         -1.0664959870       -0.9530280559        2.8453696716
 H          0.9650127723        0.3992227614        2.4839917056
 C          1.4874120525        2.1560205688        0.5557557508
 H          1.7408178422        2.5991052205        1.5331654675
 C          1.3425809098        3.3182682972       -0.4153509233
 C          2.5471984712        3.9264531527       -1.0677028625
 C          1.5499851881        3.1717324494       -1.8918169123
 H          0.9086377811        3.7330100635       -2.5563574960
 H          1.8203185713        2.1973439406       -2.2662210370
 H          2.5907439219        5.0008698214       -1.1647172708
 H          3.5053008144        3.4668615230       -0.8729041904
 H          0.5680657335        4.0111645330       -0.0984681751
 O          1.4813078922       -0.0501150470       -1.3825013201
