  62
        -98.94502799
 C          0.8121989298        1.5802373397       -1.1209481507
 C          2.1160111699        1.7449846798       -0.5887559211
 C          3.0422757399        0.6238708497       -0.7692276512
 C          2.6267272497       -0.4835408703       -1.4087857209
 C          3.4353483597       -1.7311793904       -1.6386988210
 C          3.4312106000       -2.6861461102       -0.4366391908
 C          4.2987484303       -2.2453849800        0.7431453289
 H          4.4065588905       -3.1102527999        1.4010632990
 H          5.2947712102       -1.9794835101        0.3860554585
 C          3.7096893605       -1.0838908599        1.5561482489
 H          2.6403605105       -0.9973993099        1.3457654491
 H          3.8007132408       -1.3062937898        2.6225398289
 C          4.3851820705        0.2674109201        1.3194193885
 H          5.4157276506        0.2289381201        1.6814169382
 H          3.8499111606        1.0212506601        1.9026609685
 C          4.4007028901        0.7254232898       -0.1442064916
 H          4.6989902101        1.7768243198       -0.1685277618
 H          5.1251000599        0.1425017998       -0.7130224317
 H          2.4017607801       -2.8124604202       -0.0903009505
 H          3.7914143299       -3.6571741803       -0.7855660808
 H          2.9857986794       -2.2441868805       -2.4917658208
 H          4.4622913796       -1.4670545504       -1.8933969513
 O          1.3869182696       -0.5888345704       -1.9480345506
 C          0.4351498996        0.4144963896       -1.7891196504
 O         -0.6636199305        0.1380027995       -2.3030687701
 H         -1.1932101499        0.3484013799        0.0770257500
 C         -1.2117065197        1.1010455900        0.8484302599
 C         -0.7696319997        2.3850978199        0.5624991196
 C         -0.8171181295        3.3446846201        1.5657013695
 C         -1.2750133291        3.0133046203        2.8298308897
 C         -1.6622273490        1.7182887803        3.1247328500
 C         -1.6212897993        0.7526096202        2.1247065501
 N         -1.9884324992       -0.5776473798        2.3685983104
 S         -1.2115078895       -1.8101582499        1.5370775903
 O         -1.4238436792       -2.9809922498        2.3661130706
 O          0.1694719205       -1.4897935500        1.2601408999
 C         -2.1451304899       -2.0117680301        0.0369972706
 C         -3.4972476899       -1.7325845402        0.0414247710
 C         -4.2258137802       -1.9415373803       -1.1176586688
 C         -3.5960153505       -2.4303126705       -2.2519864489
 C         -2.2398749005       -2.7114042005       -2.2375477992
 C         -1.5046635002       -2.5010072403       -1.0824239395
 H         -0.4427464902       -2.6870474703       -1.0401237797
 H         -1.7458918008       -3.0799863506       -3.1220447893
 H         -4.1639171908       -2.5880787406       -3.1554429687
 H         -5.2806302502       -1.7184400203       -1.1345258785
 H         -3.9529116696       -1.3480777200        0.9388711210
 H         -2.1592190590       -0.8151838797        3.3346218005
 H         -1.9832620287        1.4521512704        4.1201878001
 H         -1.3059492089        3.7661732804        3.6028070396
 H         -0.4683863295        4.3458083500        1.3592572792
 C         -0.1892236001        2.6774131297       -0.7993184306
 H          0.4069193199        3.6001399197       -0.7142137609
 C         -1.2418192104        2.9066123896       -1.8709713303
 C         -2.6688695004        2.4807003196       -1.7246633699
 C         -2.3138994904        3.9339547796       -1.6547111102
 H         -2.5880323606        4.5760503895       -2.4778498202
 H         -2.3553780301        4.4112724797       -0.6872444602
 H         -3.1682142406        2.1048297495       -2.6040138397
 H         -2.9601205001        1.9796444497       -0.8149136397
 H         -0.8220582007        2.8405009994       -2.8691129704
 O          2.4875608501        2.7898800899        0.0127506286
