  62
        -98.93492264
 C          1.1596163302        1.2365052495        0.7226981512
 C          1.5399188332        0.7553907567       -0.5525929019
 C          2.4593414079       -0.4061609458       -0.5777091714
 C          2.7498106389       -1.0338894160        0.5753574437
 C          3.6437055482       -2.2246302366        0.8066499013
 C          5.1362965700       -1.8720014060        0.7438492271
 C          5.5363403655       -1.0264169260       -0.4612869882
 H          4.9976086858       -0.0780942335       -0.4274706657
 H          6.6010565549       -0.7971876416       -0.3673323635
 C          5.3180890818       -1.6894696086       -1.8199970551
 H          5.8400797617       -2.6484698014       -1.8396388022
 H          5.7834012127       -1.0451512140       -2.5702997052
 C          3.8597874673       -1.9131026724       -2.2336145683
 H          3.4470698408       -2.8084554037       -1.7758153665
 H          3.8522164326       -2.0878936287       -3.3133191893
 C          2.9431347437       -0.7224682514       -1.9731001889
 H          3.4242721707        0.1882236108       -2.3494223521
 H          2.0382682675       -0.8316286433       -2.5825631214
 H          5.7090517261       -2.8011981044        0.7461560068
 H          5.3949143655       -1.3145952085        1.6476144892
 H          3.4129709703       -3.0159202458        0.0995168095
 H          3.4168261942       -2.5926081444        1.8099198679
 O          2.2360847523       -0.6189020612        1.7695041787
 C          1.4694976453        0.5203894122        1.8821245039
 O          1.1107672625        0.7834524235        3.0484866074
 O          1.1634318894        1.2597190044       -1.6402977111
 C          0.2959520904        2.4730347733        0.9154825629
 C         -0.9850769869        2.3110138890        0.1387024473
 C         -1.2075970099        2.9057627350       -1.0959485227
 C         -2.3815432854        2.6616943030       -1.7878932333
 C         -3.3617059588        1.8412576066       -1.2573583571
 C         -3.1538751209        1.2573811480       -0.0153796253
 C         -1.9693262215        1.4853361767        0.6679077841
 H         -1.7986218332        1.0122785544        1.6277184044
 N         -4.1600043525        0.4269138591        0.5364295240
 S         -4.3093017023       -1.0818727521       -0.1715812645
 O         -4.5946481516       -0.9093403692       -1.5717090272
 O         -5.3001344490       -1.7877916231        0.6078835587
 C         -2.7129431268       -1.8469172276        0.0472381708
 C         -2.4942358782       -2.6194604447        1.1706617727
 C         -1.2384744102       -3.1675811113        1.3743801157
 C         -0.2270597998       -2.9306728996        0.4564143890
 C         -0.4623921002       -2.1506494627       -0.6647456517
 C         -1.7143422882       -1.5947256257       -0.8713560416
 H         -1.9264237959       -0.9769334416       -1.7292962204
 H          0.3270656975       -1.9635205836       -1.3739678400
 H          0.7521910027       -3.3536057133        0.6160519210
 H         -1.0498900246       -3.7734073183        2.2461653117
 H         -3.3117419877       -2.7870051737        1.8537491931
 H         -4.0619146097        0.3041069624        1.5353007791
 H         -4.2750068480        1.6311644408       -1.7897452754
 H         -2.5360292892        3.1169499861       -2.7543433468
 H         -0.4453506979        3.5349581905       -1.5250925753
 H          0.0382387969        2.4627614051        1.9866054838
 C          0.9902175733        3.8018663369        0.6598683055
 C          2.4123258950        4.0060160272        1.0895508055
 C          2.0608583671        4.0095225233       -0.3662591472
 H          2.0779585586        4.9532225430       -0.8921565646
 H          2.3561795081        3.1698124476       -0.9729104626
 H          2.6834186729        4.9387354237        1.5607230890
 H          2.9356347179        3.1470420714        1.4852329962
 H          0.3138969667        4.6358758234        0.8232944840
