  62
        -98.93701290
 C          1.0644073545        1.6499286572        0.6792783356
 C          1.8843818127        1.2119488880       -0.3913138483
 C          2.8376337849        0.1386094942       -0.0743148674
 C          2.8980393232       -0.3607814573        1.1717647556
 C          3.7944389806       -1.4708316035        1.6488623439
 C          3.4861941310       -2.8570004658        1.0475374454
 C          4.3497450928       -3.2199168210       -0.1671296050
 H          5.2762471620       -2.6453377463       -0.1248663254
 H          4.6296457315       -4.2730518118       -0.0962316953
 C          3.6900939605       -3.0248088881       -1.5359429324
 H          4.4751497556       -3.0690085591       -2.2947033857
 H          3.0031671764       -3.8540682345       -1.7214336181
 C          2.8935329791       -1.7319677077       -1.7191531897
 H          1.9319879170       -1.8193180507       -1.2051889988
 H          2.6603449119       -1.6234391797       -2.7809016182
 C          3.6039783893       -0.4584556151       -1.2176926719
 H          4.6296606231       -0.6779370079       -0.9248342208
 H          3.6216748972        0.2912757088       -2.0114446270
 H          2.4268976293       -2.9126169525        0.7912886980
 H          3.6689222802       -3.5949365855        1.8306591027
 H          3.6639212064       -1.5124329426        2.7321413757
 H          4.8339593171       -1.2053067734        1.4449198126
 O          2.1228918752        0.1141473464        2.1839483598
 C          1.1537960413        1.0771830793        1.9490231369
 O          0.4404096116        1.3331915325        2.9410262678
 O          1.8225001055        1.6711447253       -1.5604825739
 C         -0.1022070107        2.5963903045        0.4471294650
 C         -0.9017779032        2.1025263036       -0.7374915380
 C         -1.4458854219        2.9204854213       -1.7180811406
 C         -2.1673394431        2.3671786390       -2.7634608072
 C         -2.3623985498        1.0012822894       -2.8573333761
 C         -1.8162691509        0.1733947472       -1.8817990251
 C         -1.1155822047        0.7334810152       -0.8291506581
 H         -0.6761169571        0.0838314681       -0.0895437788
 N         -1.9460236598       -1.2182032580       -1.9478443924
 S         -1.7568013251       -2.1942520510       -0.6140866162
 O         -0.3825156863       -2.2161875147       -0.1771895946
 O         -2.3016421900       -3.4675263531       -1.0357185260
 C         -2.8111418427       -1.4862058252        0.6387837103
 C         -2.2790119801       -0.9913757687        1.8112269428
 C         -3.1269497998       -0.4158261490        2.7445122523
 C         -4.4881018248       -0.3498737025        2.4923523399
 C         -5.0111121717       -0.8628281739        1.3145469064
 C         -4.1668529489       -1.4341196371        0.3772399731
 H         -4.5377553291       -1.8503191750       -0.5450542214
 H         -6.0710363565       -0.8145017402        1.1239378251
 H         -5.1431702694        0.1026538230        3.2198760274
 H         -2.7089483236       -0.0139188553        3.6539494400
 H         -1.2144408308       -1.0483448471        1.9820632294
 H         -2.5841259933       -1.5834300863       -2.6365901594
 H         -2.9118099218        0.5761911242       -3.6828797837
 H         -2.5800697873        3.0127554029       -3.5238491788
 H         -1.2888530782        3.9859240466       -1.6804010062
 H         -0.7379184416        2.4748752432        1.3411370521
 C          0.2559043668        4.0733231633        0.3751328210
 C          1.5658452749        4.5811142324        0.8977955689
 C          1.2876689907        4.6017624947       -0.5737107448
 H          1.1077612334        5.5563294028       -1.0465381070
 H          1.7927581342        3.8852161679       -1.2013131935
 H          1.5744990359        5.5162079075        1.4379546997
 H          2.2704927148        3.8526460235        1.2731007739
 H         -0.6047607780        4.7090845997        0.5585410463
