  62
        -98.94740311
 C          2.5352782710       -0.2104470857       -0.0089408385
 C          2.2902062861       -1.2518963607        0.9159648745
 C          1.7245479470       -2.4845401269        0.3583428985
 C          1.4789719210       -2.5671064878       -0.9620777706
 C          0.9205564826       -3.7621075657       -1.6866587011
 C         -0.6109144279       -3.8495323896       -1.6423315412
 C         -1.1931059494       -4.2885400193       -0.2982844328
 H         -2.2402883966       -4.5457071071       -0.4691057900
 H         -0.6849081397       -5.1914616813        0.0427092015
 C         -1.1250681632       -3.2116511897        0.7928557393
 H         -0.9694543240       -2.2320373592        0.3340470029
 H         -2.0831276254       -3.1555605802        1.3162330180
 C         -0.0498605681       -3.4373160098        1.8561791868
 H         -0.0643726601       -2.5752702462        2.5288773493
 H         -0.2929724385       -4.3280988151        2.4409412591
 C          1.3739945881       -3.5917273837        1.3063800737
 H          1.4842453953       -4.5598560020        0.8174647213
 H          2.0712766118       -3.5406432281        2.1467795446
 H         -1.0214761674       -2.8725763627       -1.9099981214
 H         -0.9208379065       -4.5680769311       -2.4048887471
 H          1.3528158378       -4.6760955930       -1.2778348549
 H          1.2312150835       -3.6640666158       -2.7291001941
 O          1.7453457517       -1.5493963065       -1.8222680706
 C          2.2326782239       -0.3359068864       -1.3648909505
 O          2.3759108464        0.5268355577       -2.2535730097
 O          2.5384312283       -1.1564492404        2.1499264757
 C          3.0280321959        1.1335789366        0.4995005831
 C          1.9822849162        2.1746093565        0.1813100346
 C          2.2579491043        3.4040081551       -0.4014435444
 C          1.2252536810        4.2654377616       -0.7324058665
 C         -0.0933374757        3.9152943894       -0.5094866373
 C         -0.3770979246        2.6959688313        0.0971496470
 C          0.6597013052        1.8561076220        0.4627675661
 H          0.4296520338        0.9124332024        0.9367112175
 N         -1.7012823871        2.3007307782        0.3570331197
 S         -2.0413001750        0.6445147768        0.3339223527
 O         -1.7252201168        0.1009547868        1.6307160444
 O         -1.4204224759        0.0127733954       -0.8086180059
 C         -3.8117987944        0.6891422048        0.1262129679
 C         -4.6055701104        0.9052329787        1.2369457813
 C         -5.9799559827        0.9764028486        1.0743493818
 C         -6.5348075390        0.8311491416       -0.1887137344
 C         -5.7258867685        0.6114634092       -1.2935460317
 C         -4.3502300160        0.5413323180       -1.1378723562
 H         -3.6813664106        0.3649308789       -1.9654148224
 H         -6.1594567427        0.4946645681       -2.2737229103
 H         -7.6047140208        0.8863173429       -0.3127450006
 H         -6.6120956137        1.1437982456        1.9314017409
 H         -4.1282613861        1.0014832099        2.1981935488
 H         -2.3821174262        2.8334646871       -0.1668061689
 H         -0.8968449051        4.5740995868       -0.8016634130
 H          1.4511211200        5.2147711820       -1.1940953604
 H          3.2776635123        3.6801248616       -0.6145103707
 H          3.0968119488        1.0283985481        1.5929341847
 C          4.3997265937        1.4580405826       -0.0514048931
 C          5.3361611756        2.3355191421        0.7231045433
 C          5.6056853483        0.8658949466        0.6119933112
 H          6.4241986693        0.5344426265       -0.0089798877
 H          5.4371079871        0.2453517335        1.4800665218
 H          5.9751353408        3.0143263737        0.1788654359
 H          4.9923951877        2.7163045972        1.6728981578
 H          4.4053119799        1.5260670575       -1.1334780548
