  62
        -98.93899415
 C         -2.3414220036       -0.7839113236        0.6103951158
 C         -3.4319241987       -0.9836505183       -0.2716901936
 C         -4.6573791162       -0.2303829335        0.0384140870
 C         -4.6856013201        0.5860194704        1.1062790510
 C         -5.8452195787        1.4553295299        1.4956043457
 C         -5.7383545886        2.8456299401        0.8533760397
 C         -5.4538309383        2.8126245423       -0.6483094509
 H         -5.4308697969        3.8472701853       -0.9973155527
 H         -4.4570607226        2.3965301727       -0.8128129917
 C         -6.4771779859        2.0177236801       -1.4713173706
 H         -6.7371559550        2.5966772481       -2.3599707208
 H         -7.3922657017        1.8825311542       -0.8936868894
 C         -5.9788171930        0.6554461410       -1.9569024175
 H         -6.6866304440        0.2797479695       -2.7005437110
 H         -5.0132194886        0.7747374968       -2.4545942262
 C         -5.8336252912       -0.4244187428       -0.8773698851
 H         -6.7592616257       -0.4986405432       -0.3033740859
 H         -5.6646801275       -1.3791324337       -1.3835978197
 H         -4.9283739089        3.3913396012        1.3430011132
 H         -6.6704084512        3.3829705373        1.0376351532
 H         -6.7720237157        0.9730764650        1.1910702109
 H         -5.8424940658        1.5650679405        2.5813550989
 O         -3.6240447826        0.7473697047        1.9371921197
 C         -2.4368349445        0.0753023643        1.7102421998
 O         -1.5491024863        0.3159322248        2.5544745684
 H          1.4015675080       -0.3019607770        0.8356472963
 C          1.0941205876       -0.2656714055       -0.1997362997
 C         -0.1284103273       -0.7984161574       -0.5812515647
 C         -0.5064919744       -0.7187055187       -1.9177546786
 C          0.3276142691       -0.1218452883       -2.8450051898
 C          1.5585147045        0.3843805373       -2.4662172429
 C          1.9424678683        0.3146859468       -1.1323377416
 N          3.1770613253        0.8333195645       -0.7103455405
 S          4.0037851936        0.0162933368        0.5148777971
 O          3.9077770155       -1.4110829249        0.3080444673
 O          3.5510654187        0.5080385324        1.7921255508
 C          5.6701981216        0.5733546336        0.2106072656
 C          6.5134718376       -0.2077633376       -0.5571035453
 C          7.7975401267        0.2458872562       -0.8148975258
 C          8.2131621067        1.4672360894       -0.3061263621
 C          7.3555908246        2.2397533697        0.4632201507
 C          6.0706210881        1.7918491356        0.7256402245
 H          5.3722672898        2.3518874987        1.3257213767
 H          7.6832563447        3.1871400492        0.8598263539
 H          9.2129432008        1.8179908816       -0.5076622329
 H          8.4675969388       -0.3536999115       -1.4096725179
 H          6.1496026146       -1.1542930318       -0.9233484978
 H          3.7862643626        1.0773492103       -1.4792383759
 H          2.2147094563        0.8359051294       -3.1949090315
 H          0.0221571477       -0.0634545658       -3.8789059446
 H         -1.4595192746       -1.1259110496       -2.2180192120
 C         -0.9979392381       -1.4772750661        0.4505620540
 H         -0.4934306144       -1.3709218767        1.4213097092
 C         -1.1147657799       -2.9576785272        0.1369085154
 C          0.0835349995       -3.8313410109        0.3487119856
 C         -1.1021127123       -3.9496858975        1.2582026649
 H         -1.7282789276       -4.8256261755        1.1783863529
 H         -1.0129882973       -3.5661295290        2.2646650670
 H          0.9811840196       -3.3669595209        0.7320471226
 H          0.2709604153       -4.6267958246       -0.3562718927
 H         -1.7508704236       -3.1692010851       -0.7121414002
 O         -3.4116074996       -1.7459109433       -1.2742221550
