  62
        -98.94313353
 C         -0.1872328598       -1.9426390596       -0.2291972166
 C         -1.3970168855       -2.2232150249        0.4447005444
 C         -2.5720019703       -1.4526023688        0.0146342610
 C         -2.4375540829       -0.5511591202       -0.9749665881
 C         -3.5133217353        0.3852866842       -1.4485845045
 C         -3.6550187485        1.5646819519       -0.4638690821
 C         -4.9932923986        1.6154260439        0.2748827608
 H         -4.8884086257        2.3431477875        1.0827465961
 H         -5.7618342947        1.9862090930       -0.4071202208
 C         -5.4863828263        0.2885805266        0.8596846883
 H         -5.9445068879       -0.3118483501        0.0720999964
 H         -6.2800682590        0.5293994458        1.5701543913
 C         -4.4275355367       -0.5621826150        1.5729069900
 H         -3.6015171976        0.0613401517        1.9193051161
 H         -4.8854970886       -1.0036451022        2.4606776220
 C         -3.8671710500       -1.7222093545        0.7280223515
 H         -3.6525129460       -2.5658811334        1.3908177301
 H         -4.6227137690       -2.0514372216        0.0092082139
 H         -3.5344715905        2.5071969161       -1.0023648884
 H         -2.8406266048        1.5111479926        0.2645047276
 H         -3.2204116058        0.7467619260       -2.4345436756
 H         -4.4555930038       -0.1508108370       -1.5391387524
 O         -1.2646020244       -0.3329546370       -1.6233872914
 C         -0.1048026816       -0.9967338505       -1.2512133312
 O          0.9077917762       -0.6670643314       -1.8951981343
 H          0.5903774209       -0.1787050626        1.2608701552
 C          1.6486074571       -0.3843755671        1.2073407761
 C          2.0957747995       -1.5973053048        0.7033509312
 C          3.4659895795       -1.8332796572        0.6743957817
 C          4.3537604624       -0.8740181948        1.1290912827
 C          3.9025437800        0.3476017331        1.5960411096
 C          2.5349520070        0.5937006225        1.6260601749
 N          2.0199925964        1.8240784257        2.0698668013
 S          0.7430070796        2.5275306478        1.2564161879
 O          0.7690436471        3.9093699388        1.6950351554
 O         -0.4861707094        1.8221437310        1.5289652400
 C          1.1088476004        2.4766247642       -0.4895203646
 C          0.0414668852        2.4797937456       -1.3624735442
 C          0.2833704409        2.4950951228       -2.7254473006
 C          1.5867955483        2.5089073023       -3.1925747849
 C          2.6493303098        2.5157959281       -2.3041360382
 C          2.4129212942        2.5058756395       -0.9393371933
 H          3.2308217485        2.5070074509       -0.2378950835
 H          3.6638298426        2.5210386914       -2.6692754005
 H          1.7748044398        2.5072292082       -4.2547117783
 H         -0.5457751517        2.4815740669       -3.4147855388
 H         -0.9577791639        2.4507774696       -0.9594935614
 H          2.7119703333        2.5138166971        2.3248620744
 H          4.5969522291        1.1016394453        1.9346337516
 H          5.4139973730       -1.0741835474        1.1059455521
 H          3.8369416611       -2.7711549042        0.2942844216
 C          1.0875295309       -2.6190773503        0.2325675009
 H          0.7965459450       -3.2369249657        1.0962916098
 C          1.6400652921       -3.5268469935       -0.8492135382
 C          2.3083943925       -4.8207168555       -0.4940689214
 C          0.9479372676       -4.8279113344       -1.1212715054
 H          0.8488793607       -5.1563368358       -2.1448609928
 H          0.0986708090       -5.0735482698       -0.5001639809
 H          3.1464909186       -5.1484769120       -1.0905600027
 H          2.3801713010       -5.0788701777        0.5519035516
 H          2.0151181753       -2.9716767537       -1.7013678722
 O         -1.4877824461       -3.0748850767        1.3724912772
