  62
        -98.93445261
 C          2.3107411666        0.6684139228       -0.1109913516
 C          3.5259551139        1.0354982686        0.5089750372
 C          4.7606182337        0.4342510412       -0.0316075977
 C          4.6630581373       -0.4139745801       -1.0725080762
 C          5.7665297905       -1.1730662520       -1.7602026333
 C          6.2520315012       -2.3810767334       -0.9423286266
 C          6.4442313581       -2.1133782477        0.5481982195
 H          5.5030462976       -1.7585951832        0.9722844854
 H          6.6769767554       -3.0670597299        1.0293013222
 C          7.5605265204       -1.1312030896        0.8952127690
 H          8.5069290996       -1.5124316412        0.5050933046
 H          7.6387610302       -1.1011404116        1.9850808372
 C          7.3712936895        0.3018091795        0.3935245657
 H          7.5953950416        0.3788426377       -0.6669271622
 H          8.1044517393        0.9270407127        0.9115256957
 C          6.0016332139        0.9059004547        0.6878413134
 H          5.7863995791        0.8030392575        1.7575718189
 H          6.0519395369        1.9867766504        0.5083369586
 H          7.1886486198       -2.7367237631       -1.3749330450
 H          5.5092483947       -3.1761238105       -1.0435693356
 H          6.5902698400       -0.5048508285       -1.9926808991
 H          5.3550268698       -1.5356283407       -2.7046907788
 O          3.4651067446       -0.7408024500       -1.6380658774
 C          2.2678645207       -0.2201319275       -1.1841462807
 O          1.2635337597       -0.6159624325       -1.8061971618
 O          3.5846710386        1.8298059995        1.4871976233
 C          1.0128533580        1.2645578403        0.4009017764
 C          0.0681033074        0.1701437123        0.8308066460
 C          0.5140605869       -0.7772836985        1.7498966816
 C         -0.3173856780       -1.7935296296        2.1771017332
 C         -1.6161679248       -1.8816442181        1.7067824570
 C         -2.0700684885       -0.9444232421        0.7871052895
 C         -1.2301194367        0.0746397491        0.3577251806
 H         -1.6105590271        0.7869532511       -0.3545198790
 N         -3.3717547509       -1.0267113458        0.2682109753
 S         -4.1923954483        0.3957904323       -0.1159579312
 O         -3.7787044887        0.8448242867       -1.4214507830
 O         -4.0602985606        1.3520345028        0.9604307602
 C         -5.8661915060       -0.2152236808       -0.1976489857
 C         -6.7239281728       -0.0031818304        0.8650080071
 C         -8.0143380335       -0.5048051556        0.7953130464
 C         -8.4216843066       -1.2085774851       -0.3279221364
 C         -7.5493945683       -1.4132015478       -1.3870348128
 C         -6.2587876418       -0.9126211064       -1.3248777264
 H         -5.5494856135       -1.0380719936       -2.1265324710
 H         -7.8702739904       -1.9586995367       -2.2598328896
 H         -9.4262222470       -1.5977855696       -0.3800767190
 H         -8.6959908967       -0.3441540274        1.6149903690
 H         -6.3651249043        0.5558989726        1.7141466138
 H         -3.9590098753       -1.6757654862        0.7735842371
 H         -2.2678694032       -2.6743201297        2.0415183979
 H          0.0444541130       -2.5205045597        2.8887759653
 H          1.5270444026       -0.7037159479        2.1224152966
 H          1.2889808257        1.8463734099        1.2935237484
 C          0.4219990304        2.2063731192       -0.6263501703
 C         -0.4957902780        3.3093082819       -0.1942039750
 C          0.8883439836        3.6292557430       -0.6709874911
 H          1.0064851974        4.1030673697       -1.6338655208
 H          1.6234782545        3.9325060997        0.0601320917
 H         -1.3355476322        3.5562834083       -0.8269644736
 H         -0.7071763972        3.3975737591        0.8610258715
 H          0.2170767465        1.7171487666       -1.5729447615
