  62
        -98.94559781
 C          2.3407668045        0.1212865326        0.1241635123
 C          1.5497559753       -0.4558030645       -0.8935683764
 C          1.3334017871       -1.9115050495       -0.8211368425
 C          1.8103463235       -2.5939861370        0.2363324976
 C          1.7661733350       -4.0688810530        0.5774530582
 C          0.8682249445       -5.0255546333       -0.2011422120
 C         -0.6277876235       -4.8231838674        0.0326812092
 H         -1.1710226500       -5.5072606179       -0.6235082549
 H         -0.8599129050       -5.0965748684        1.0651952446
 C         -1.1439144655       -3.4046986168       -0.1965999470
 H         -2.2232875065       -3.4072345489       -0.0149588944
 H         -0.7099552919       -2.7198677476        0.5355835892
 C         -0.9104143762       -2.8484677886       -1.5991625849
 H         -1.2970568082       -3.5504586813       -2.3410811250
 H         -1.4879226651       -1.9243172434       -1.6777166746
 C          0.5511789717       -2.5197432337       -1.9513364279
 H          1.0696287450       -3.3972263747       -2.3330893245
 H          0.5426673750       -1.7713532373       -2.7493237626
 H          1.1208991515       -6.0341631970        0.1372977433
 H          1.0974261669       -4.9805500363       -1.2615841112
 H          2.8011121826       -4.4210014588        0.4993439634
 H          1.5039007415       -4.1179906217        1.6394863977
 O          2.5190251107       -1.9807112429        1.2302066022
 C          2.8028842503       -0.6285959576        1.2022111229
 O          3.4657778043       -0.2183493233        2.1785081693
 H          0.5359395928        1.0696156529        1.6677379223
 C          0.3322128509        1.9179426589        1.0306659328
 C          1.3091600608        2.3662280449        0.1510906659
 C          1.0277650362        3.4702147534       -0.6437601738
 C         -0.2116621333        4.0839574282       -0.5756592887
 C         -1.2004525264        3.5977274853        0.2605075114
 C         -0.9240357015        2.4995813591        1.0667821921
 N         -1.9002089499        1.9391612287        1.9171600784
 S         -2.3400488140        0.3473710658        1.6201895488
 O         -3.3985522363        0.0698907105        2.5678104539
 O         -1.1830857745       -0.5060196779        1.6890260927
 C         -3.0244002086        0.3840406858       -0.0273799883
 C         -4.3987543448        0.3554174926       -0.1711325069
 C         -4.9458321627        0.4541224604       -1.4398514850
 C         -4.1130284136        0.5932677680       -2.5403524356
 C         -2.7371053220        0.6267278195       -2.3789717816
 C         -2.1812546399        0.5203894824       -1.1123039636
 H         -1.1115810505        0.5360658265       -0.9734680499
 H         -2.0785573257        0.7318403266       -3.2264184369
 H         -4.5368446429        0.6748908333       -3.5287906002
 H         -6.0161677602        0.4260114246       -1.5658839305
 H         -5.0050197974        0.2484823932        0.7139032533
 H         -2.7359421243        2.5017389713        2.0038654381
 H         -2.1765053101        4.0581260964        0.2900399015
 H         -0.4173006688        4.9405932965       -1.1990691412
 H          1.7761647622        3.8456175060       -1.3222666230
 C          2.6182726396        1.6145545627        0.1167065794
 H          3.1604918378        1.8266382376        1.0502630221
 C          3.4980439673        1.9859111498       -1.0587019945
 C          4.4339844081        3.1522773525       -0.9636127840
 C          4.9746869451        1.7548524494       -0.9567476419
 H          5.5028339364        1.3990007988       -1.8285098760
 H          5.3489971442        1.3527770417       -0.0261485586
 H          4.5963523429        3.7571080150       -1.8429688350
 H          4.4520981805        3.7051054239       -0.0364857756
 H          3.0247920485        1.7825848332       -2.0122373524
 O          1.0508544848        0.2135139302       -1.8373205700
