  62
        -98.93678934
 C          1.9480397158        0.8945190832       -0.0173603970
 C          2.2818326876       -0.0899524521        0.9396247951
 C          2.6459235377       -1.4157578505        0.4159006423
 C          2.6093973797       -1.6320916414       -0.9101143156
 C          2.8896608003       -2.9122662774       -1.6571637235
 C          4.1082209386       -3.7368974004       -1.2179519791
 C          5.2873411578       -2.9167466273       -0.6743436506
 H          6.1996916813       -3.2240553101       -1.1886533643
 H          5.1345046899       -1.8570453715       -0.8854414726
 C          5.5074208253       -3.1112943436        0.8278204660
 H          5.4016220988       -4.1726253459        1.0623887466
 H          6.5320350335       -2.8221176845        1.0732513924
 C          4.5809507656       -2.3045832232        1.7370413565
 H          4.8386364286       -1.2434262214        1.6818969069
 H          4.7571661688       -2.6237523682        2.7670734594
 C          3.0789070477       -2.4318364744        1.4333587331
 H          2.8205015999       -3.4427583179        1.1268442736
 H          2.5270012895       -2.1956386207        2.3477105161
 H          3.8036889407       -4.4617794964       -0.4643016425
 H          4.4327974035       -4.3074548559       -2.0896872786
 H          1.9925555141       -3.5361402464       -1.6020923698
 H          3.0079114599       -2.6104462000       -2.7005846202
 O          2.2587540225       -0.6589319981       -1.7981424928
 C          1.9204134070        0.6185386790       -1.3828849387
 O          1.6278512186        1.3996734731       -2.3087725427
 H         -0.5489462701        0.6430806981        0.2336810270
 C         -0.8032447061        1.6541518118       -0.0521377852
 C          0.1706550800        2.6438343767       -0.0173794339
 C         -0.1852217715        3.9365495605       -0.3821691220
 C         -1.4801693214        4.2209596184       -0.7795917460
 C         -2.4442591170        3.2316082274       -0.8173269576
 C         -2.0977268953        1.9329356718       -0.4576836026
 N         -3.0434219158        0.8982044914       -0.5321636282
 S         -2.8623501272       -0.4855357286        0.4073909574
 O         -2.6194793710       -0.1282425441        1.7879389825
 O         -1.8907914486       -1.3524528861       -0.2132202183
 C         -4.4942339076       -1.1846493017        0.2394397826
 C         -4.7785494870       -1.9620927364       -0.8671947003
 C         -6.0573586965       -2.4757400021       -1.0146402567
 C         -7.0256932617       -2.2039065528       -0.0594850032
 C         -6.7253300777       -1.4237494374        1.0470276910
 C         -5.4485248946       -0.9066950786        1.2001630492
 H         -5.1654461736       -0.3043089687        2.0483211050
 H         -7.4789270838       -1.2168171897        1.7896042913
 H         -8.0198309660       -2.6052062703       -0.1768742400
 H         -6.2931176117       -3.0852313544       -1.8720373624
 H         -3.9907995195       -2.1522368793       -1.5777032887
 H         -3.9988944273        1.2251333067       -0.5607178475
 H         -3.4522319704        3.4538692255       -1.1321159243
 H         -1.7423074740        5.2292922355       -1.0619715634
 H          0.5531101561        4.7212332039       -0.3572941501
 C          1.5588080311        2.2817499903        0.4527053508
 H          1.5379928490        2.2229776061        1.5525714647
 C          2.6125004547        3.2899659714        0.0386616605
 C          2.9254081566        4.4690857171        0.9094576425
 C          3.9017737890        3.3380311234        0.8010202548
 H          4.8196351132        3.4943941286        0.2545617546
 H          4.0022315342        2.6654687288        1.6407016686
 H          2.3725772931        4.5709221743        1.8311697587
 H          3.1766756937        5.4065110338        0.4365123859
 H          2.6612450211        3.4163365076       -1.0373115147
 O          2.2714428588        0.1276150111        2.1830575249
