  62
        -98.94041527
 C          2.2463966601        1.0320611002       -0.4687304683
 C          3.3666833196        0.5796001393        0.2765364318
 C          3.9188637292       -0.7281881807       -0.0942767986
 C          3.3444340893       -1.4193712699       -1.0951036592
 C          3.7599565189       -2.7920055499       -1.5381206198
 C          2.9831804381       -3.8786564099       -0.7818681706
 C          2.9739814577       -3.6902616607        0.7353264995
 H          2.4068425579       -2.7876992506        0.9767807497
 H          2.4278648372       -4.5338546507        1.1631620688
 C          4.3670306475       -3.6043922216        1.3748886100
 H          4.3797521169       -4.2296205921        2.2700051697
 H          5.1142387375       -4.0045404016        0.6887779101
 C          4.7795304179       -2.1966875520        1.8084775909
 H          5.6695078376       -2.2813313327        2.4376751012
 H          3.9874236378       -1.7543720820        2.4179029508
 C          5.1135427887       -1.2215926216        0.6729007615
 H          5.5678171289       -0.3330991220        1.1208693322
 H          5.8408032988       -1.6774571815       -0.0019290384
 H          1.9479197283       -3.8702261493       -1.1319610610
 H          3.4190756378       -4.8487481600       -1.0280409510
 H          3.5526597392       -2.8859130392       -2.6054228799
 H          4.8289618588       -2.9124140304       -1.3724860595
 O          2.2817558497       -0.9527392191       -1.7971532194
 C          1.6995866801        0.2755507510       -1.5064080189
 O          0.7440296005        0.5572584817       -2.2551804091
 H         -0.8166749198        1.3607204615       -0.6045453993
 C         -0.7000774400        1.6421702909        0.4307854009
 C          0.5026760800        2.1715908102        0.8800536816
 C          0.6325174797        2.4944403895        2.2265830218
 C         -0.4158477007        2.2898472294        3.1052794613
 C         -1.6098880608        1.7570064702        2.6570365406
 C         -1.7515381404        1.4321289309        1.3114228204
 N         -2.9696040005        0.9209812417        0.8347993997
 S         -2.9531625405       -0.2116967677       -0.4190575609
 O         -1.9420433210       -1.2145959982       -0.1680671211
 O         -2.8970329497        0.4891721830       -1.6755661705
 C         -4.5825221008       -0.9112422171       -0.2141308319
 C         -4.7317782516       -2.1390994774        0.4015065274
 C         -6.0082291619       -2.6513696269        0.5762944867
 C         -7.1079610714       -1.9291020262        0.1386742067
 C         -6.9427908007       -0.6975477460       -0.4780270326
 C         -5.6695656404       -0.1812209464       -0.6577606519
 H         -5.4900603298        0.7654242937       -1.1400568713
 H         -7.7997250803       -0.1396393255       -0.8193506527
 H         -8.0997902016       -2.3296488459        0.2765775561
 H         -6.1390431524       -3.6100744871        1.0517541861
 H         -3.8466888119       -2.6665831879        0.7194290175
 H         -3.5903494809        0.6346755815        1.5800604993
 H         -2.4292177411        1.5920789601        3.3402426602
 H         -0.2997110010        2.5410166088        4.1486329715
 H          1.5729378197        2.8891915389        2.5825670524
 C          1.6655211605        2.3768774302       -0.0621940779
 H          2.4670887805        2.8704172696        0.5053152827
 C          1.2892337913        3.2702980710       -1.2257263775
 C          1.2164577218        4.7506549809       -1.0042703868
 C          2.3288739219        4.1686518409       -1.8226699667
 H          2.3225428823        4.3213160914       -2.8914051066
 H          3.3190838517        4.1407688802       -1.3915021463
 H          0.4426237222        5.3075080015       -1.5097763168
 H          1.4542151616        5.1204853303       -0.0183094865
 H          0.5710991813        2.8252438016       -1.9020465480
 O          3.8895562295        1.2498152686        1.2076288924
