  62
        -98.94518347
 C          1.5406978478        1.1360490772        0.1469568437
 C          2.8745228315        1.2686169366        0.6094304892
 C          3.9235322515        0.7363340525       -0.2686348968
 C          3.5748096086        0.1668166566       -1.4365377378
 C          4.5325644836       -0.4733434732       -2.3983779050
 C          4.6935601760       -1.9713660068       -2.1047170560
 C          4.9735805217       -2.2860235623       -0.6350243573
 H          4.0951126786       -2.0221870199       -0.0409114434
 H          5.1008819487       -3.3677862839       -0.5533403874
 C          6.2088010806       -1.5801063414       -0.0580553496
 H          6.8490547449       -1.2327073605       -0.8696659586
 H          6.7849813346       -2.3036393616        0.5224848542
 C          5.8934437522       -0.4098779285        0.8755294489
 H          6.8148894923       -0.1306374139        1.3933230233
 H          5.1759131189       -0.7314108889        1.6347461666
 C          5.3464756563        0.8541429875        0.2002123519
 H          5.3518721704        1.6564942008        0.9436796908
 H          6.0014086217        1.1442599964       -0.6236763545
 H          5.5049627550       -2.3596377431       -2.7231081242
 H          3.7715888075       -2.4820625845       -2.3933851087
 H          5.4967400671        0.0267456718       -2.3306842463
 H          4.1391324980       -0.3509706025       -3.4088995085
 O          2.2884388039        0.0690075636       -1.8549655777
 C          1.2371948428        0.5310800002       -1.0734199284
 O          0.1170273109        0.3596159291       -1.5884910250
 O          3.1737182992        1.8096538017        1.7078007992
 C          0.4259806220        1.6276160320        1.0577209017
 C         -0.2160351070        0.4205134830        1.6982149798
 C          0.4488820371       -0.2249953608        2.7384537221
 C         -0.0921988987       -1.3503235052        3.3290208205
 C         -1.2996902817       -1.8628165987        2.8855862241
 C         -1.9667715926       -1.2322539919        1.8431508274
 C         -1.4292624542       -0.0898113210        1.2650497550
 H         -1.9561864662        0.3891055432        0.4594637786
 N         -3.2021087109       -1.7136719500        1.3773132866
 S         -3.4106141253       -1.9236305974       -0.2791754417
 O         -4.5082819210       -2.8655952128       -0.3765598771
 O         -2.1790853347       -2.3252859398       -0.9161435465
 C         -3.9737348256       -0.3389785831       -0.8600384851
 C         -5.1970710821        0.1093549743       -0.4009148544
 C         -5.6622497142        1.3418108559       -0.8291202329
 C         -4.9000683688        2.0993845217       -1.7061245968
 C         -3.6762730884        1.6319183980       -2.1596263576
 C         -3.2029625800        0.3988178486       -1.7363121984
 H         -2.2410221455        0.0190417316       -2.0459552482
 H         -3.0786538744        2.2212454906       -2.8373108284
 H         -5.2594554095        3.0608360324       -2.0381225955
 H         -6.6129661723        1.7092186847       -0.4779417750
 H         -5.7580593745       -0.5150576344        0.2742535768
 H         -3.5459555460       -2.5208776680        1.8787076570
 H         -1.7213408210       -2.7464225275        3.3411339789
 H          0.4311608476       -1.8384257126        4.1375913422
 H          1.3993533094        0.1676807541        3.0722450023
 H          0.9338524467        2.1947740068        1.8504666110
 C         -0.5553373757        2.5404153550        0.3549379713
 C         -1.5277378941        3.3365144356        1.1715799800
 C         -0.3953977604        4.0252654675        0.4725039496
 H         -0.6149702526        4.6353501585       -0.3905976070
 H          0.4249625089        4.3950861462        1.0701876263
 H         -2.5284893646        3.4713474388        0.7906096679
 H         -1.4741286708        3.2361172474        2.2450665323
 H         -0.8949999660        2.1551336624       -0.5978385698
