  62
        -98.93726591
 C         -1.1769795483       -1.3879167167        0.6173660909
 C         -2.0201026428       -1.0279229214       -0.4593655264
 C         -3.1274175689       -0.0953702949       -0.1573129981
 C         -3.2485865195        0.3917441912        1.0906064009
 C         -4.2612958519        1.3730961879        1.6182116406
 C         -3.9534939554        2.8188787980        1.1978529201
 C         -3.5585512469        2.9914938113       -0.2665743675
 H         -2.6706395687        2.3893566174       -0.4721699179
 H         -3.2707757987        4.0366801542       -0.4106553122
 C         -4.6523371969        2.6622344792       -1.2801935304
 H         -4.2619055882        2.9175137488       -2.2687054873
 H         -5.5180163676        3.3008124189       -1.0900247500
 C         -5.1208190365        1.2057583630       -1.3164771571
 H         -5.6999882179        1.0748553688       -2.2352435554
 H         -5.7960864429        0.9895882077       -0.4929168714
 C         -3.9966289855        0.1758257826       -1.3615167131
 H         -3.3080153963        0.4324013080       -2.1750148890
 H         -4.4248077359       -0.7943886630       -1.6418266892
 H         -3.1200735067        3.1785934251        1.8068642631
 H         -4.8258727256        3.4366960563        1.4185039865
 H         -5.2610731762        1.0837468784        1.3085349243
 H         -4.2186406666        1.3123496450        2.7080938959
 O         -2.3751566647        0.0623439194        2.0853380153
 C         -1.3178487459       -0.7996287484        1.8750528740
 O         -0.5786025127       -0.9595933257        2.8683934921
 H          0.7142833544        0.1817409597       -0.0990317257
 C          1.1259232584       -0.4906267415       -0.8360464545
 C          0.8321088027       -1.8456983945       -0.7582791521
 C          1.3319746694       -2.6878194459       -1.7422913482
 C          2.0989316615       -2.1741540660       -2.7745636601
 C          2.3999426338       -0.8260027724       -2.8393375502
 C          1.9001621300        0.0257822294       -1.8601707281
 N          2.1677208301        1.4023373528       -1.8835974072
 S          2.2963750726        2.2526974216       -0.4526086726
 O          0.9946879876        2.4717004268        0.1277370078
 O          3.0310109139        3.4459889580       -0.8164818994
 C          3.3037127580        1.2287372453        0.6064529970
 C          2.7693457328        0.6293506072        1.7282034657
 C          3.5774047579       -0.1935531025        2.4976081767
 C          4.8992186376       -0.4000130946        2.1363034652
 C          5.4254949255        0.2181248698        1.0117493540
 C          4.6217174916        1.0377051383        0.2374246477
 H          4.9970466184        1.5437931934       -0.6370057912
 H          6.4556320614        0.0605857811        0.7362104154
 H          5.5216408030       -1.0439030339        2.7373056359
 H          3.1589405867       -0.6712843405        3.3694195685
 H          1.7360242126        0.8008690185        1.9888438725
 H          2.8373654897        1.7042447457       -2.5751007938
 H          3.0004779491       -0.4317907333       -3.6444007233
 H          2.4731736567       -2.8371723645       -3.5397398194
 H          1.1057513126       -3.7408783236       -1.7158079069
 C          0.0175800206       -2.3060066012        0.4269967388
 H          0.6372863463       -2.1400829269        1.3250414324
 C         -0.3141390574       -3.7910229137        0.4040226890
 C         -1.6025768690       -4.3093248473        0.9685375942
 C         -1.3542611185       -4.3674891047       -0.5073056439
 H         -1.1645272162       -5.3321081279       -0.9552854868
 H         -1.8864208710       -3.6819162243       -1.1468055716
 H         -2.3144892130       -3.5852729351        1.3387136806
 H         -1.5808570819       -5.2288419746        1.5343275195
 H          0.5633396639       -4.4036210994        0.5866315932
 O         -1.8706664184       -1.4525518855       -1.6347572957
