  62
        -98.94422377
 C          1.9751548802        1.1743372905       -0.1809567396
 C          2.3811213803       -0.0133316993       -0.8357944799
 C          3.8263903204       -0.2865455893       -0.8243573498
 C          4.6598534603        0.5856252806       -0.2288965395
 C          6.1433439203        0.4011486007       -0.0968824695
 C          6.4986575502       -0.3190044196        1.2115625804
 C          5.6801902302       -1.5856061997        1.4624386400
 H          6.0370190902       -2.0233067899        2.3972544300
 H          4.6338218302       -1.3109653498        1.6148690500
 C          5.7692260504       -2.6314334694        0.3423135498
 H          5.9127054104       -3.6158997895        0.7926453196
 H          6.6399164904       -2.4316069993       -0.2833213901
 C          4.5228088604       -2.7234624993       -0.5400717103
 H          4.6031710905       -3.6276597392       -1.1495020905
 H          3.6343560304       -2.8310324895        0.0877430396
 C          4.2948245005       -1.5462263891       -1.4965980001
 H          5.2013906405       -1.3614670889       -2.0765874399
 H          3.4960065205       -1.8307296790       -2.1880727702
 H          7.5609876202       -0.5686125896        1.1904043004
 H          6.3273734301        0.3689421102        2.0426315905
 H          6.6140837002        1.3856543207       -0.0989334092
 H          6.5104022804       -0.1680724991       -0.9486128596
 O          4.2330652402        1.7253121905        0.3726617107
 C          2.8856561902        2.0408811104        0.4247016906
 O          2.6282037401        3.1016501903        1.0288074009
 O          1.5854280604       -0.8069640892       -1.4027493801
 C          0.5030186702        1.5473262204       -0.1147811597
 C         -0.2491262498        0.4543738702        0.6040660300
 C          0.0836606201        0.1915799500        1.9315913800
 C         -0.5412120699       -0.8228530802        2.6290397597
 C         -1.5173938198       -1.5925623101        2.0196834895
 C         -1.8572558797       -1.3398424598        0.6963379395
 C         -1.2290508197       -0.3148086097       -0.0011086202
 H         -1.4941800296       -0.1584098394       -1.0323840902
 N         -2.8208609596       -2.1303884197        0.0530270893
 S         -3.9737197896       -1.4787812296       -0.9624775207
 O         -4.9192706595       -2.5542080296       -1.1643820310
 O         -3.3616432595       -0.9343360093       -2.1465757105
 C         -4.7367472697       -0.1826768298       -0.0040465405
 C         -4.2598274898        1.1089603102       -0.0981409801
 C         -4.8297944099        2.0912518400        0.6966981600
 C         -5.8593479999        1.7675780998        1.5666421399
 C         -6.3288914099        0.4651593498        1.6475963396
 C         -5.7609595098       -0.5218659500        0.8589817994
 H         -6.1032729697       -1.5437867301        0.8817495491
 H         -7.1328103399        0.2173332996        2.3218019394
 H         -6.2997698600        2.5359170996        2.1822859800
 H         -4.4668714399        3.1046826601        0.6322705603
 H         -3.4620154697        1.3262362304       -0.7885934600
 H         -3.2205785596       -2.8557644999        0.6297260291
 H         -2.0003745098       -2.3930273103        2.5592749193
 H         -0.2689805500       -1.0175484104        3.6554725797
 H          0.8511849801        0.7912705099        2.4025532502
 H          0.4516649501        2.4584533403        0.4982604705
 C         -0.0264494897        1.8637094607       -1.4968154096
 C         -1.1919501797        2.7914444907       -1.6561639195
 C          0.1825747203        3.2392592309       -2.0520732193
 H          0.4116854904        3.3419166211       -3.1021726793
 H          0.6895328202        3.9561630907       -1.4223802791
 H         -1.9091709696        2.5875067209       -2.4377575996
 H         -1.6172213498        3.2153482205       -0.7587406295
 H          0.0628853104        1.0328834409       -2.1872552398
