  62
        -98.92990850
 C         -2.0670439021       -1.5322869076        0.0741878980
 C         -1.7345568389       -0.2828936288       -0.4978714782
 C         -2.8632798329        0.6285944919       -0.7656790354
 C         -4.1160676900        0.2380954235       -0.4772401907
 C         -5.4080579138        0.9799935784       -0.7119583747
 C         -5.4398785513        2.4745809181       -0.3620087897
 C         -4.5430192904        2.8865942490        0.8144290308
 H         -5.1336383290        3.4713458763        1.5221122125
 H         -4.1862212252        2.0005846910        1.3423057365
 C         -3.3489519109        3.7403946826        0.3817445688
 H         -2.9803786735        4.2929288334        1.2493217532
 H         -3.6925862646        4.4741046100       -0.3506926938
 C         -2.1640867733        2.9701862590       -0.2010136372
 H         -1.4537264989        3.7029015199       -0.5921067336
 H         -1.6582756092        2.4120964410        0.5918756064
 C         -2.5020814918        1.9756557563       -1.3232570567
 H         -3.2838756755        2.3639108226       -1.9717661126
 H         -1.5985871673        1.8228670376       -1.9202770591
 H         -6.4776410741        2.7226951789       -0.1331472314
 H         -5.1645959015        3.0593006233       -1.2387200266
 H         -5.6870228694        0.8519747164       -1.7619227353
 H         -6.1525364649        0.4478451206       -0.1149533291
 O         -4.3897115703       -0.9794943088        0.0726333298
 C         -3.3859745943       -1.8854711832        0.3592970716
 O         -3.7851275054       -2.9548090309        0.8644660912
 H          1.7205831888       -2.1145363223       -0.4254954932
 C          1.4535263071       -1.7883531444        0.5612512705
 C          0.1707541428       -1.9311931821        1.0641784905
 C         -0.0854449465       -1.4300411674        2.3430438702
 C          0.8978170507       -0.8086108502        3.0852467092
 C          2.1769505281       -0.6710219020        2.5739562642
 C          2.4482754370       -1.1646913280        1.3060229808
 N          3.7449430721       -1.0774310199        0.7621294940
 S          4.0025761788       -0.2855687008       -0.6915183158
 O          3.1896789924       -0.8713316352       -1.7238545247
 O          5.4346623521       -0.3507769811       -0.8919831023
 C          3.5350647470        1.4050177207       -0.3674679410
 C          4.5368863174        2.3230234353       -0.1149296484
 C          4.1915331655        3.6254128165        0.2054039281
 C          2.8535968025        3.9827092031        0.2793989893
 C          1.8623321811        3.0469129636        0.0291069434
 C          2.1979619214        1.7416562099       -0.2992509877
 H          1.4382967262        1.0030678475       -0.5030157082
 H          0.8205312190        3.3180582034        0.0886262626
 H          2.5806308956        4.9950075685        0.5332868220
 H          4.9625418618        4.3539525248        0.3983601992
 H          5.5624881598        1.9979273129       -0.1847714057
 H          4.4402155481       -0.7667898326        1.4267068295
 H          2.9533104618       -0.1898841422        3.1495275050
 H          0.6686465803       -0.4275330597        4.0690322991
 H         -1.0842732109       -1.5331502831        2.7468023236
 C         -1.0016475148       -2.5815547784        0.3732896805
 H         -1.4661923659       -3.2482235488        1.1198482466
 C         -0.8273312673       -3.4469692321       -0.8672306084
 C         -0.0133656286       -3.1124681531       -2.0781158155
 C          0.3764086329       -4.2721206677       -1.2073468939
 H          0.2094882861       -5.2688994067       -1.5889392449
 H          1.2563669506       -4.1870869441       -0.5905882988
 H          0.5872174135       -2.2165565943       -2.0784656156
 H         -0.4473206351       -3.3272309083       -3.0449933535
 H         -1.7844312562       -3.9206416323       -1.0811103006
 O         -0.5614458577        0.0678334100       -0.7800457103
