  62
        -98.93583834
 C          1.8065370293        1.0055358360        0.5305557524
 C          2.7505953582        0.9688847449       -0.5240907130
 C          4.0723918632        0.4186688077       -0.1831127957
 C          4.3142379340       -0.0300674422        1.0608005361
 C          5.6157440614       -0.5736497157        1.5883298934
 C          6.1094692616       -1.8921179672        0.9619692498
 C          7.0852561945       -1.7107726272       -0.2073805544
 H          7.5735059373       -0.7403048128       -0.1100925353
 H          7.8705831524       -2.4654174511       -0.1291910923
 C          6.4793931004       -1.8403462366       -1.6082109511
 H          6.3322390226       -2.8984662019       -1.8367385357
 H          7.2052381455       -1.4479772063       -2.3237965309
 C          5.1402650822       -1.1350528538       -1.8240382989
 H          4.3413153592       -1.7090740385       -1.3482389931
 H          4.9230791883       -1.1359412099       -2.8940047817
 C          5.0809634112        0.3089745081       -1.2894949759
 H          6.0622935218        0.6334666620       -0.9468734056
 H          4.7506764530        0.9842590931       -2.0811521831
 H          6.6234633466       -2.4432444671        1.7512153052
 H          5.2531930053       -2.4924241485        0.6551433105
 H          6.3867656364        0.1918000281        1.4742741212
 H          5.4538499266       -0.7266008156        2.6573818247
 O          3.3680407143       -0.0033862104        2.0396287575
 C          2.1012207627        0.4939640979        1.7973391559
 O          1.3326398908        0.4355020027        2.7795946578
 O          2.5286727043        1.3813352133       -1.6914586978
 C          0.3941124211        1.5392730736        0.3457700433
 C         -0.4367899462        0.4922062187       -0.3551065748
 C         -0.4649530788        0.3630617983       -1.7387240586
 C         -1.2345786508       -0.6212512942       -2.3336598169
 C         -1.9973474645       -1.4851713671       -1.5676027865
 C         -1.9719053676       -1.3649644249       -0.1847271918
 C         -1.1950141883       -0.3826708814        0.4113768621
 H         -1.1643323359       -0.2998171865        1.4902304374
 N         -2.7858128550       -2.2147048202        0.5972679288
 S         -4.4319358708       -2.0338943961        0.3132603654
 O         -5.0909513149       -2.4837839411        1.5186312799
 O         -4.7814430680       -2.7296198148       -0.8988943104
 C         -4.6342721195       -0.2754054947        0.0923802341
 C         -4.5944402176        0.5304917904        1.2128476017
 C         -4.6398821177        1.9056291532        1.0516330753
 C         -4.7114942384        2.4485071238       -0.2223599218
 C         -4.7536964108        1.6255676975       -1.3369078190
 C         -4.7133377053        0.2493503256       -1.1816700816
 H         -4.7437504183       -0.4249023111       -2.0213652800
 H         -4.8095887562        2.0512072622       -2.3255782641
 H         -4.7346452887        3.5198852353       -0.3458262787
 H         -4.6101409737        2.5481832277        1.9172843327
 H         -4.5390671062        0.0717610894        2.1874426789
 H         -2.6013376709       -2.1309182939        1.5873657098
 H         -2.6165692903       -2.2459651338       -2.0152266265
 H         -1.2434592222       -0.7152233059       -3.4088627719
 H          0.1396362310        1.0208203922       -2.3416050493
 H         -0.0099250015        1.6554839532        1.3603139951
 C          0.3398281726        2.8847049521       -0.3483450625
 C         -0.9556452417        3.6380377221       -0.3409087007
 C          0.2011414054        4.1270818636        0.4764717381
 H          0.7211242615        5.0173808440        0.1559341042
 H          0.1540680481        4.0138048092        1.5499645075
 H         -1.2320643068        4.1937793667       -1.2232551980
 H         -1.7896324704        3.1849797177        0.1744546347
 H          0.9566443852        2.9436055059       -1.2345363016
