  62
        -98.93228901
 C         -2.6970976673       -0.8301822562       -0.3511121606
 C         -3.1821398765        0.0129463813        0.6796989846
 C         -3.3096930242        1.4465719819        0.3708574737
 C         -2.9550361353        1.8792843712       -0.8512310654
 C         -2.9076823386        3.2975396069       -1.3477486967
 C         -1.5054221097        3.8940427902       -1.1317217007
 C         -1.2928813691        4.5628681887        0.2253336568
 H         -0.2371016542        4.8365717237        0.2874710816
 H         -1.8780477732        5.4841623407        0.2695899845
 C         -1.6434383392        3.6985259584        1.4391209445
 H         -1.1191587901        4.1087895175        2.3047327093
 H         -1.2617192186        2.6857839398        1.2883425765
 C         -3.1493016404        3.6609357936        1.7403186067
 H         -3.3119077432        3.8999684464        2.7932670976
 H         -3.6463037679        4.4415233428        1.1646188070
 C         -3.8357186070        2.3120724282        1.4832337688
 H         -3.7556041820        1.6878999508        2.3788041792
 H         -4.9043469558        2.4827674147        1.3146288189
 H         -0.7698231736        3.0940975635       -1.2592135063
 H         -1.3172546984        4.6380659122       -1.9086686871
 H         -3.6709314980        3.9026887629       -0.8675862578
 H         -3.1091772252        3.2595295029       -2.4202532801
 O         -2.5137231755        1.0356437327       -1.8218538834
 C         -2.3458051416       -0.3228662035       -1.6017794256
 O         -1.8935675188       -0.9343568295       -2.5889367551
 O         -3.4907607282       -0.4214305396        1.8227337532
 C         -2.4856356646       -2.2905211129        0.0142868663
 C         -1.1003934377       -2.4369569768        0.5924742411
 C         -0.8820855191       -3.0046272751        1.8412104378
 C          0.3899504158       -3.0399019896        2.3883088184
 C          1.4665070989       -2.5016458486        1.7060520414
 C          1.2580655686       -1.9439967564        0.4530475956
 C         -0.0111636858       -1.9231717112       -0.0989668637
 H         -0.1613862950       -1.4737599099       -1.0708317081
 N          2.3494430002       -1.3365101124       -0.2287455730
 S          2.5664567588        0.2747218158        0.2571405341
 O          2.3546801847        0.3545729358        1.6801167594
 O          1.7589917924        1.1492362178       -0.5689924813
 C          4.2934496082        0.5128066922       -0.1122001707
 C          5.2258386677        0.0113526500        0.7751951439
 C          6.5726189379        0.1493941649        0.4812652529
 C          6.9623171826        0.7810044679       -0.6906440940
 C          6.0146153978        1.2794239272       -1.5713388377
 C          4.6654233790        1.1432629634       -1.2830333879
 H          3.8944164216        1.5214340211       -1.9351555480
 H          6.3196941652        1.7721504353       -2.4805310734
 H          8.0111849040        0.8872242267       -0.9183014795
 H          7.3125033478       -0.2355233712        1.1643128753
 H          4.8748646592       -0.4636722300        1.6762096395
 H          2.1800673444       -1.3140800689       -1.2272895081
 H          2.4549550474       -2.4908332922        2.1344068418
 H          0.5400116862       -3.4759011936        3.3641669385
 H         -1.7227371242       -3.3927564900        2.3975659005
 H         -3.2054273177       -2.4895307709        0.8237391305
 C         -2.7827066545       -3.2631644984       -1.1162637942
 C         -1.7314203650       -4.0857046403       -1.7936332178
 C         -2.7052087594       -4.7400229578       -0.8633176690
 H         -3.4720147418       -5.3770913275       -1.2766025249
 H         -2.3357292503       -5.0572541679        0.1002345184
 H         -1.8328991085       -4.2466660378       -2.8559452791
 H         -0.7087408915       -3.9786960290       -1.4673170096
 H         -3.5967968542       -2.9175449953       -1.7444556317
