  62
        -98.94437729
 C          2.6337855039        1.3144782518        0.1169100792
 C          2.5934886917        0.2913492540       -0.8610092180
 C          3.6564435997       -0.7215820684       -0.7720267357
 C          4.5873095291       -0.6226087196        0.1941090612
 C          5.6947464733       -1.6083897807        0.4260131982
 C          5.2695663445       -2.6984412106        1.4195669186
 C          3.9178665119       -3.3354497949        1.0965001716
 H          3.7365321031       -4.1112752939        1.8434908127
 H          3.1305764602       -2.5869882588        1.2150920323
 C          3.8241241228       -3.9477420144       -0.3080307807
 H          4.8250365948       -4.1048860453       -0.7117888232
 H          3.3471289271       -4.9271295367       -0.2318425550
 C          2.9998191212       -3.1294337495       -1.3040029649
 H          2.0259145865       -2.8904500957       -0.8672416009
 H          2.8162399343       -3.7512486181       -2.1846324132
 C          3.6447119018       -1.8256503811       -1.7915144667
 H          4.6548975932       -2.0282022958       -2.1533782664
 H          3.0471386271       -1.4541730648       -2.6293135650
 H          5.2086613616       -2.2546046747        2.4158000412
 H          6.0417109388       -3.4696062300        1.4372340590
 H          6.5522086125       -1.0712911452        0.8348275411
 H          5.9785857642       -2.0579649392       -0.5234207075
 O          4.5965118179        0.3774806470        1.1113850971
 C          3.6170502983        1.3548465147        1.1084353594
 O          3.7302871927        2.1973174965        2.0208364687
 O          1.7267411154        0.2217852555       -1.7726652923
 C          1.5802835012        2.4109868042        0.1537268982
 C          0.2561582783        1.7820500736        0.5123358782
 C          0.0017045123        1.4592600433        1.8428756023
 C         -1.1747282142        0.8305476911        2.2032720681
 C         -2.1187699915        0.5016872845        1.2450917532
 C         -1.8651388959        0.8010347817       -0.0859200256
 C         -0.6906102739        1.4521576649       -0.4433619101
 H         -0.5025695791        1.6690984429       -1.4826417159
 N         -2.8111449371        0.4686551974       -1.0686634829
 S         -3.5586733714       -1.0309639018       -1.0076290734
 O         -2.7205106844       -2.0308160260       -0.3874411197
 O         -3.9806186232       -1.2963789679       -2.3658565002
 C         -5.0025945368       -0.7342306915       -0.0063868065
 C         -5.2888273233       -1.5694697209        1.0555341803
 C         -6.4249996471       -1.3275021462        1.8122688972
 C         -7.2513139726       -0.2606745303        1.4945806015
 C         -6.9515829737        0.5673449280        0.4229886512
 C         -5.8182349071        0.3300381777       -0.3379940635
 H         -5.5518016666        0.9483843084       -1.1787199129
 H         -7.5964347712        1.3961733325        0.1790854953
 H         -8.1339522898       -0.0735114216        2.0855551872
 H         -6.6594945347       -1.9707360170        2.6452176344
 H         -4.6140628838       -2.3832313509        1.2696052007
 H         -2.5092543524        0.6828333248       -2.0082936064
 H         -3.0330710286        0.0006451108        1.5179527562
 H         -1.3602373721        0.5908201651        3.2393594680
 H          0.7479630118        1.6991634634        2.5880519932
 H          1.8719074996        3.0788554675        0.9751562759
 C          1.5571505771        3.2072777843       -1.1340715608
 C          0.8599277531        4.5331785155       -1.1641205433
 C          2.3559054214        4.4711632186       -1.2243006327
 H          2.8460467331        4.7042507639       -2.1577451832
 H          2.9172911100        4.7699291194       -0.3510444344
 H          0.3211604719        4.8135822808       -2.0563072529
 H          0.4036763544        4.8752440721       -0.2476200803
 H          1.5135792248        2.5884844768       -2.0217788753
