  62
        -98.93686700
 C         -2.4174432006       -1.1055370983       -0.1794818391
 C         -2.4506968088        0.1401468449        0.4953433793
 C         -3.7893576753        0.6290487764        0.8597221949
 C         -4.8751173904       -0.1211385087        0.6036162816
 C         -6.2998806785        0.2383195425        0.9270048956
 C         -6.9696788770        1.1340712948       -0.1242303569
 C         -6.4880217762        2.5853547889       -0.1453572436
 H         -7.1871408029        3.1455317352       -0.7693349453
 H         -6.5449808024        3.0006268980        0.8612357349
 C         -5.0700663260        2.7750083603       -0.7024221924
 H         -4.7738550700        1.8828067551       -1.2592791041
 H         -5.0638824663        3.6077152851       -1.4094366442
 C         -4.0081323569        3.0720704889        0.3565444181
 H         -3.0385631947        3.1514795259       -0.1424628083
 H         -4.2213017636        4.0330225767        0.8299685453
 C         -3.8919882291        2.0026951489        1.4507388835
 H         -4.7429702521        2.0638282495        2.1285817074
 H         -2.9760969403        2.1883476799        2.0172570372
 H         -6.8213391934        0.6868310443       -1.1098952079
 H         -8.0422550805        1.1329286856        0.0829439201
 H         -6.3432167072        0.7240672424        1.9021210719
 H         -6.8526684551       -0.7019518713        0.9809953861
 O         -4.7930785227       -1.3465413891        0.0191586874
 C         -3.5749618174       -1.8576392814       -0.3975194326
 O         -3.6508161882       -2.9835698378       -0.9293624179
 O         -1.4330371596        0.8190625454        0.7865551865
 C         -1.1151297582       -1.7178279724       -0.6642878313
 C         -0.0461696207       -1.5962762400        0.3932534753
 C         -0.2244830998       -2.2633610348        1.6028321862
 C          0.7307240538       -2.1896522748        2.5975753783
 C          1.8930964571       -1.4649282163        2.4008830338
 C          2.0767612055       -0.7895075415        1.2005379846
 C          1.1104868737       -0.8575394258        0.2067554705
 H          1.2705627680       -0.3059354732       -0.7043571615
 N          3.2302734309       -0.0192124220        0.9830417627
 S          3.8598669301        0.0774568094       -0.5777080026
 O          3.1661288795        1.1067555100       -1.3098182415
 O          3.8804896118       -1.2340786384       -1.1874587731
 C          5.5209171961        0.6183068343       -0.2172082277
 C          6.5541895478       -0.2993201387       -0.2199170517
 C          7.8347393036        0.1321840530        0.0893138451
 C          8.0582756127        1.4655776984        0.3974844726
 C          7.0109107178        2.3751728004        0.3959980017
 C          5.7286879500        1.9509418455        0.0860794057
 H          4.8857513481        2.6219951021        0.0631572493
 H          7.1889009044        3.4115033355        0.6338088101
 H          9.0554291936        1.7990204146        0.6379071238
 H          8.6513956495       -0.5716009316        0.0882348599
 H          6.3337971617       -1.3239428381       -0.4728201677
 H          3.9514258298       -0.1815690466        1.6721297280
 H          2.6434368027       -1.4106547162        3.1751205951
 H          0.5749923220       -2.7086072368        3.5316216637
 H         -1.1308699948       -2.8351893850        1.7529625550
 H         -1.3340496000       -2.7912501406       -0.7950745071
 C         -0.6612899437       -1.1997070425       -2.0212522817
 C         -1.6535298732       -0.7954619516       -3.0691372896
 C         -0.7921164422        0.2397466821       -2.4137171742
 H          0.0094340059        0.6876295803       -2.9837374928
 H         -1.2433447083        0.9125825872       -1.7015467642
 H         -1.4521301258       -1.0613913581       -4.0958832789
 H         -2.7006354785       -0.8322261938       -2.8051121173
 H          0.2263422556       -1.7180830380       -2.3744549532
