  62
        -98.93823428
 C          2.5343044408        1.3852223295        0.1430273863
 C          2.5735814542        0.2876029614       -0.7459265329
 C          3.6984239332       -0.6586763572       -0.5874032938
 C          4.6094998395       -0.4316882936        0.3768414228
 C          5.8146858560       -1.2576630161        0.7416945167
 C          5.4504927333       -2.5292150815        1.5237592178
 C          4.2622968964       -3.3072851720        0.9650869024
 H          4.0445911657       -4.1245421699        1.6578402653
 H          3.3840591940       -2.6589052901        0.9458890316
 C          4.4758580769       -3.9140950037       -0.4196791909
 H          5.3390538152       -4.5827078808       -0.3890645477
 H          3.5944910821       -4.5197649225       -0.6463416536
 C          4.6714733707       -2.9177233657       -1.5647498157
 H          5.6819851397       -2.5180188865       -1.5714796720
 H          4.5505695425       -3.4711230437       -2.5006619357
 C          3.6563504011       -1.7795323606       -1.5982237177
 H          3.7119806183       -1.2916874649       -2.5790641731
 H          2.6443273165       -2.1984036585       -1.5443721954
 H          5.2054860223       -2.2381944397        2.5480714386
 H          6.3285792987       -3.1763061608        1.5574859192
 H          6.3841874406       -1.5020358877       -0.1499937638
 H          6.4429927118       -0.6282927880        1.3758433181
 O          4.5209750209        0.6354790421        1.2218626052
 C          3.4970168894        1.5550517563        1.1393354335
 O          3.5509037103        2.4674075769        1.9883193227
 H         -0.6221210766        1.5403528876       -1.5499527450
 C         -0.8082779234        1.3552639905       -0.5042275023
 C          0.1210672989        1.7516409179        0.4428433156
 C         -0.1308416452        1.4705631829        1.7834317324
 C         -1.2881870098        0.8175992724        2.1613082966
 C         -2.2163975450        0.4243148835        1.2117897759
 C         -1.9650394633        0.6823800954       -0.1281888292
 N         -2.8963992471        0.2933853103       -1.1029021900
 S         -3.6656826400       -1.1892834554       -0.9752259933
 O         -2.8449538860       -2.1738797298       -0.3088295108
 O         -4.0867562816       -1.5089455265       -2.3220205411
 C         -5.1077542553       -0.8259152641        0.0065736488
 C         -5.8968685634        0.2450391078       -0.3651926821
 C         -7.0284807796        0.5335487393        0.3805257084
 C         -7.3532310467       -0.2512737926        1.4769951391
 C         -6.5536080174       -1.3256686209        1.8348822858
 C         -5.4192141594       -1.6186311636        1.0937056157
 H         -4.7648199249       -2.4401080833        1.3392237543
 H         -6.8074726919       -1.9353050596        2.6871859386
 H         -8.2344163820       -0.0242481993        2.0560334651
 H         -7.6523691295        1.3686381360        0.1054360235
 H         -5.6119759208        0.8291955419       -1.2240970691
 H         -2.5908402287        0.4660753924       -2.0496161432
 H         -3.1156535636       -0.0951791705        1.4994561532
 H         -1.4718993214        0.6100567713        3.2046456872
 H          0.6021305413        1.7640347620        2.5226739320
 C          1.4223610074        2.4195984258        0.0716025949
 H          1.6553867071        3.1613738194        0.8473645233
 C          1.3980444258        3.1143230428       -1.2736395583
 C          0.6430522003        4.3998023417       -1.4239385658
 C          2.1414115311        4.4035951415       -1.4429006854
 H          2.6461164875        4.5870030682       -2.3796839369
 H          2.6646391501        4.7945208796       -0.5824524486
 H          0.1174481180        4.5856175110       -2.3481429696
 H          0.1466261709        4.7894048616       -0.5482282996
 H          1.4069480128        2.4269056561       -2.1106496566
 O          1.7164646013        0.0905116605       -1.6488242522
