  62
        -98.94918354
 C          1.1418071379        1.6617877738       -0.1411771965
 C          2.2118449780        1.2690831408        0.6963805782
 C          3.0363581985        0.1598605565        0.2033046436
 C          2.7523497128       -0.4052584433       -0.9841526985
 C          3.5189576535       -1.5231166055       -1.6384258428
 C          3.1362247009       -2.9250056974       -1.1443200217
 C          3.6269532025       -3.2784186446        0.2601949523
 H          3.4878339285       -4.3541143108        0.3857076271
 H          4.6964517011       -3.0773651823        0.3337052135
 C          2.8899422022       -2.5564852443        1.3969833904
 H          2.6476243424       -3.2714799787        2.1872016713
 H          1.9340799982       -2.1655083328        1.0392322420
 C          3.6772202843       -1.4188695906        2.0478768635
 H          3.0325193751       -0.9490284917        2.7956782099
 H          4.5498727986       -1.8264285126        2.5641360748
 C          4.1519198638       -0.3321263323        1.0748780146
 H          4.5117269776        0.5167783780        1.6621460801
 H          4.9735295440       -0.7085708600        0.4651790699
 H          2.0497703950       -3.0323932838       -1.1831216326
 H          3.5660915276       -3.6447141966       -1.8449187074
 H          4.5882076602       -1.3666917988       -1.4920233557
 H          3.3038406120       -1.4633834955       -2.7074568923
 O          1.7168581678        0.0061189207       -1.7629354435
 C          0.8696153058        1.0273198147       -1.3523018192
 O         -0.0599666289        1.2729989401       -2.1425601947
 O          2.4718522606        1.8253884261        1.7982035363
 C          0.2411299119        2.8019362353        0.2924692395
 C         -1.1943273971        2.3458154749        0.3831804495
 C         -2.2612326132        3.1011976012       -0.0872125363
 C         -3.5592610201        2.6399205555        0.0448347867
 C         -3.8207872720        1.4228290996        0.6456082639
 C         -2.7615389418        0.6637726737        1.1305668452
 C         -1.4632542209        1.1293989406        0.9991358839
 H         -0.6491227574        0.5322671459        1.3840338032
 N         -2.9974267721       -0.5635168990        1.7752580049
 S         -2.0607995836       -1.8939663618        1.4023388184
 O         -2.8096711913       -3.0137226018        1.9332529124
 O         -0.7240428169       -1.7294296803        1.9128345402
 C         -2.0412981395       -1.9813987944       -0.3765520339
 C         -0.8482777047       -1.8319316706       -1.0486860614
 C         -0.8404422669       -1.8886511522       -2.4325485560
 C         -2.0285906207       -2.0872386538       -3.1166934337
 C         -3.2225784401       -2.2402350799       -2.4277518723
 C         -3.2328155832       -2.1881924058       -1.0440137707
 H         -4.1399620909       -2.3184806289       -0.4764989321
 H         -4.1434684598       -2.3969687878       -2.9660833540
 H         -2.0215361944       -2.1221043219       -4.1946369198
 H          0.0882634404       -1.7557227189       -2.9638684604
 H          0.0503275754       -1.6659770872       -0.4750026296
 H         -3.9725283137       -0.8195079701        1.8345844397
 H         -4.8332210959        1.0630106189        0.7476888185
 H         -4.3780092616        3.2351830930       -0.3294770043
 H         -2.0766306089        4.0517729241       -0.5596159076
 H          0.5759946592        3.0699258954        1.3064399875
 C          0.4402522436        3.9980457508       -0.6163131320
 C          0.2724950300        5.3902213729       -0.0871138837
 C          1.6406546494        4.8701270329       -0.4073020926
 H          2.1535326076        5.2591078525       -1.2741011251
 H          2.2988430595        4.6169091444        0.4112134859
 H         -0.1521105651        6.1414910483       -0.7358376245
 H          0.0047615396        5.5012556863        0.9528114850
 H          0.1409014803        3.7962641930       -1.6387576963
