  62
        -98.93802137
 C         -2.3763484203       -1.2117317482       -0.0930674436
 C         -3.1616682456       -0.5019832998        0.8413941216
 C         -4.0235562980        0.5731953785        0.3119525907
 C         -4.0044599493        0.8232877146       -1.0109013378
 C         -4.7564804070        1.8858965263       -1.7673575296
 C         -4.1444319445        3.2852497710       -1.5905632429
 C         -3.7360900509        3.6334694181       -0.1613547165
 H         -3.0227805378        2.8897666168        0.1997359596
 H         -3.2144680840        4.5939573085       -0.1890243661
 C         -4.8876987178        3.7567502613        0.8336471357
 H         -4.4610612210        4.0861511841        1.7847699769
 H         -5.5742007403        4.5343022125        0.4913616813
 C         -5.6899101579        2.4793912329        1.0899578775
 H         -6.3769140278        2.2776465276        0.2726593325
 H         -6.3056514846        2.6550442665        1.9769547019
 C         -4.8456936130        1.2436809911        1.3865034219
 H         -5.5028363738        0.4611543198        1.7852906295
 H         -4.1479045569        1.4733544412        2.2003272203
 H         -4.8594260386        4.0237590186       -1.9566176945
 H         -3.2493831800        3.3430619725       -2.2147599882
 H         -4.7025228154        1.6149478937       -2.8239609145
 H         -5.8027712228        1.8801448946       -1.4768685939
 O         -3.2139970899        0.1230342136       -1.8740879818
 C         -2.3866545329       -0.9015084198       -1.4524855911
 O         -1.7281279643       -1.4423656728       -2.3599008242
 O         -3.1416733786       -0.7453774423        2.0801279115
 C         -1.4767196863       -2.3312444718        0.3941750741
 C         -0.0327580564       -2.0355560282        0.0685018227
 C          0.8485129056       -2.9931327233       -0.4160599277
 C          2.1681006981       -2.6650463542       -0.6759893829
 C          2.6382345317       -1.3835665529       -0.4585064543
 C          1.7696575628       -0.4203921133        0.0384460088
 C          0.4508478116       -0.7540125748        0.3034853705
 H         -0.2230513368       -0.0011388831        0.6957359085
 N          2.2387862088        0.8886202559        0.2574530384
 S          3.5866012198        1.0724472441        1.2457169712
 O          3.6707371261        0.0120675248        2.2236273860
 O          3.4943581363        2.4197273053        1.7649557796
 C          4.9629848948        0.9760464303        0.1209798607
 C          5.9505265307        0.0316158889        0.3219704051
 C          7.0175476508       -0.0199349962       -0.5615205718
 C          7.0775431440        0.8690151283       -1.6238592843
 C          6.0786074906        1.8131953291       -1.8100668251
 C          5.0100218380        1.8712095432       -0.9297442231
 H          4.2156779865        2.5910928265       -1.0365300502
 H          6.1285566805        2.5025998065       -2.6374895770
 H          7.9077466059        0.8261457003       -2.3110317083
 H          7.7951984373       -0.7528385025       -0.4183857984
 H          5.8576380915       -0.6424900919        1.1584451600
 H          1.5134924356        1.5334435081        0.5369850374
 H          3.6624685515       -1.1224265986       -0.6684794968
 H          2.8391824907       -3.4188585006       -1.0583196247
 H          0.5014520826       -3.9975659477       -0.5938741855
 H         -1.5812671257       -2.3346132464        1.4902416357
 C         -1.9576490706       -3.6630755420       -0.1435013237
 C         -1.7528880026       -4.9191475687        0.6480600953
 C         -3.1242494963       -4.3295045475        0.5199153282
 H         -3.8502113007       -4.8350308506       -0.0989538481
 H         -3.5528394288       -3.8352686929        1.3797848533
 H         -1.5394904249       -5.8345195214        0.1169876910
 H         -1.2526715412       -4.8338996329        1.6010332410
 H         -1.8969236416       -3.7196766628       -1.2245391593
