  62
        -98.94416822
 C          1.8799252325        1.3461196006        0.1163782613
 C          2.0818914161        0.3763811175       -0.8954184284
 C          3.4407976851       -0.1787165063       -0.9940877866
 C          4.3974922118        0.2440401799       -0.1490082641
 C          5.8022577342       -0.2814494431       -0.1051183360
 C          5.9271492351       -1.4557546642        0.8756839096
 C          4.8588914980       -2.5334543304        0.6896750026
 H          5.0664424455       -3.3250899222        1.4129710962
 H          3.8818817306       -2.1157093950        0.9444120503
 C          4.8008659650       -3.1337748986       -0.7220190420
 H          4.7166978223       -4.2193584936       -0.6373588557
 H          5.7293835866       -2.9218064875       -1.2534221295
 C          3.6152549128       -2.6597592977       -1.5646113292
 H          3.5465055541       -3.3032118715       -2.4459412590
 H          2.6900794000       -2.7851475741       -0.9958021754
 C          3.6866219785       -1.2097198112       -2.0600360403
 H          4.6464918985       -1.0358583955       -2.5501884073
 H          2.8930750616       -1.0725571349       -2.8002625089
 H          5.8466577312       -1.0672716799        1.8935880745
 H          6.9176990619       -1.8991243324        0.7588494747
 H          6.0991468129       -0.5956721942       -1.1038519610
 H          6.4603581114        0.5249762415        0.2228051070
 O          4.1720446676        1.1809070683        0.8056312113
 C          2.9198905928        1.7463347492        0.9637307484
 O          2.8560013428        2.5920279322        1.8780445695
 H         -0.4468191923       -0.3754135289       -0.3424404154
 C         -0.8300600654       -0.0506974016        0.6136716838
 C         -0.4062988796        1.1621871915        1.1381383742
 C         -0.9065146942        1.5615950020        2.3715750982
 C         -1.8077729117        0.7668796359        3.0595776431
 C         -2.2263455082       -0.4424742392        2.5335958133
 C         -1.7249243515       -0.8523624741        1.3054957800
 N         -2.1551908939       -2.0803302535        0.7506895221
 S         -3.7714019975       -2.1070504923        0.3030547465
 O         -4.5840052364       -2.1028931897        1.4928478150
 O         -3.9224783367       -3.2481888446       -0.5707536892
 C         -4.0011469979       -0.5886873465       -0.6031690339
 C         -3.6655522067       -0.5646137472       -1.9419398062
 C         -3.7664447840        0.6295050207       -2.6367425468
 C         -4.1873735481        1.7750967163       -1.9792433541
 C         -4.5118492935        1.7364597601       -0.6320700225
 C         -4.4177243355        0.5439547355        0.0667402889
 H         -4.6647213380        0.4702379482        1.1129986422
 H         -4.8334630174        2.6308026549       -0.1233677661
 H         -4.2665620029        2.7035933596       -2.5231225410
 H         -3.5108224303        0.6634846071       -3.6837748641
 H         -3.3450173095       -1.4781051315       -2.4172739773
 H         -1.5931119361       -2.3578087061       -0.0428849187
 H         -2.9378513923       -1.0687593730        3.0471951573
 H         -2.1874239743        1.0916084160        4.0164056282
 H         -0.5764716896        2.4987125207        2.7956536088
 C          0.5478600751        2.0388729291        0.3635462713
 H          0.7839235036        2.9105393656        0.9879458646
 C         -0.1129854490        2.5288680041       -0.9116903154
 C         -1.0911597253        3.6598670950       -0.8321861848
 C          0.2544424287        3.8746069455       -1.4563750831
 H          0.3169193838        3.9965847223       -2.5272119088
 H          0.9862516684        4.4516670985       -0.9094200982
 H         -1.9573243614        3.6329092700       -1.4740311640
 H         -1.2735282499        4.0960141349        0.1380606476
 H         -0.3104892604        1.7401239918       -1.6251732334
 O          1.1903898605       -0.0279125707       -1.6905646633
