  62
        -98.93164256
 C         -1.9211809302       -1.6994856590       -0.0008647103
 C         -2.6704839604       -1.1565823985       -1.0708862499
 C         -3.8147205302       -0.2957626686       -0.6922306193
 C         -4.1160910500       -0.1185534991        0.6037667809
 C         -5.1804499898        0.7661901507        1.1917505515
 C         -4.6037957196        2.1517496506        1.5296529119
 C         -4.6404464198        3.1628875810        0.3843522224
 H         -5.6746709498        3.4642290912        0.2045667927
 H         -4.0928587596        4.0486239009        0.7150377226
 C         -4.0365905501        2.6802080416       -0.9371366280
 H         -3.0991505201        2.1533839114       -0.7456162084
 H         -3.7896068001        3.5611993118       -1.5334032577
 C         -4.9882147803        1.7844546220       -1.7441032082
 H         -5.0549866605        2.1599653824       -2.7673845680
 H         -5.9900921002        1.8587055319       -1.3214510479
 C         -4.5750853504        0.3087291020       -1.8417028789
 H         -5.4670597805       -0.2995330679       -2.0261677789
 H         -3.9207146306        0.1718928323       -2.7084470891
 H         -5.1647992994        2.5709009402        2.3674884622
 H         -3.5718088195        2.0137965303        1.8638349116
 H         -6.0315615299        0.8464984111        0.5222786317
 H         -5.5042518896        0.2884154104        2.1187170513
 O         -3.4147059298       -0.7242462096        1.6019430204
 C         -2.3167200199       -1.5138678595        1.3287535499
 O         -1.7809427097       -2.0109019800        2.3395505195
 O         -2.4380905007       -1.3589515480       -2.2902600400
 C         -0.6592848003       -2.5434327290       -0.1432124509
 C          0.4519901599       -1.9357883094        0.6784654791
 C          1.3129827300       -2.7428154498        1.4145607886
 C          2.3398600902       -2.1902255502        2.1572038486
 C          2.5406192103       -0.8214762502        2.1630686591
 C          1.6874845102       -0.0059210098        1.4304660896
 C          0.6498610700       -0.5629976995        0.6974407196
 H         -0.0127478200        0.0899569108        0.1476165601
 N          1.8638397603        1.3956528502        1.4017572902
 S          2.3594576901        2.0414326907       -0.0630617496
 O          2.5645847502        3.4508194306        0.1842073009
 O          1.4123958598        1.6923511712       -1.0890696296
 C          3.9296667299        1.2496192508       -0.3663197203
 C          5.0867791901        1.8820687105        0.0453131397
 C          6.3000929800        1.2329184305       -0.1171695008
 C          6.3338690298       -0.0364850993       -0.6745937814
 C          5.1631400796       -0.6594162790       -1.0791756314
 C          3.9466351597       -0.0136761890       -0.9231602308
 H          3.0183389696       -0.4657578488       -1.2319889908
 H          5.1881830095       -1.6455925888       -1.5139653318
 H          7.2779345697       -0.5433902093       -0.7968761318
 H          7.2122251301        1.7163810003        0.1935702892
 H          5.0121154502        2.8701451103        0.4701651701
 H          2.4700335705        1.7389738298        2.1346373402
 H          3.3408232005       -0.3837671205        2.7409785591
 H          2.9916977503       -2.8289131705        2.7330088882
 H          1.1571738900       -3.8115140598        1.4167092181
 H         -0.8832430803       -3.5292715992        0.3007151087
 C         -0.2129473106       -2.7913688884       -1.5761895411
 C          0.5936337793       -1.7980381982       -2.3514766609
 C          1.2216940593       -3.0831624784       -1.9061109616
 H          1.4267978391       -3.8354301081       -2.6526464619
 H          1.9459606095       -3.0420302388       -1.1063880117
 H          0.3508673191       -1.6668169677       -3.3952049908
 H          0.8714811795       -0.8740801684       -1.8654900805
 H         -0.9602709008       -3.3352818881       -2.1415382812
