  62
        -98.93711956
 C         -1.8609347364       -1.4424438986        0.3081079950
 C         -2.5498626179       -0.8083741128       -0.7533542839
 C         -3.7298057621       -0.0189333534       -0.3696167797
 C         -4.0888637153        0.0609028432        0.9242010863
 C         -5.2909871174        0.7751120902        1.4834102850
 C         -5.3021103431        2.3090706616        1.3366353523
 C         -6.0392865434        2.8201879525        0.0926379677
 H         -6.7665516940        2.0690707390       -0.2178771906
 H         -6.6068989091        3.7127961784        0.3634232826
 C         -5.1547812574        3.1987000236       -1.0993519256
 H         -4.7011077852        4.1747211493       -0.9118080686
 H         -5.7994070170        3.2996581940       -1.9751413048
 C         -4.0231753274        2.2244624986       -1.4282860466
 H         -3.6051956292        2.5014089360       -2.3982551007
 H         -3.2141339240        2.3416850588       -0.7027336105
 C         -4.4382253699        0.7404519265       -1.4530445668
 H         -5.5177902545        0.6407502394       -1.3507313786
 H         -4.1369169972        0.2867524226       -2.3993258402
 H         -4.2791009675        2.6845723938        1.3544573824
 H         -5.8070216411        2.7070377785        2.2183538248
 H         -6.1902600218        0.3612572318        1.0217853552
 H         -5.3129567668        0.5192665561        2.5447698735
 O         -3.3893201215       -0.5569655751        1.9159662704
 C         -2.2556037849       -1.3028112658        1.6377538992
 O         -1.6924509326       -1.7793685492        2.6450452321
 H          0.1691111491        0.1327485506        0.7991100018
 C          0.7138519419       -0.1822617669       -0.0830110787
 C          0.4290357459       -1.4215585401       -0.6441760593
 C          1.1482568420       -1.8212112581       -1.7623021654
 C          2.0999964337       -0.9840769548       -2.3202700478
 C          2.3623628558        0.2581521820       -1.7740917433
 C          1.6633082405        0.6587062389       -0.6417322594
 N          1.9346044792        1.9109156886       -0.0648929361
 S          3.5360392285        2.3648653478        0.1078532321
 O          3.5539565468        3.2638324444        1.2407240473
 O          4.0219880965        2.9117290530       -1.1344544494
 C          4.4155687580        0.8594014774        0.4872719227
 C          4.0387500417        0.1505089158        1.6108479181
 C          4.6902653583       -1.0361986559        1.9043162721
 C          5.7033389793       -1.4910973897        1.0738579979
 C          6.0741321900       -0.7648741513       -0.0469340658
 C          5.4237739839        0.4214637548       -0.3469464540
 H          5.6768428611        1.0156817673       -1.2098293675
 H          6.8635742292       -1.1200851625       -0.6893242459
 H          6.2060450744       -2.4170874272        1.3041377381
 H          4.4018235665       -1.6018625683        2.7758869672
 H          3.2499766180        0.5317104184        2.2400497137
 H          1.4065746782        2.1007830612        0.7736151050
 H          3.0857150767        0.9285253757       -2.2090974151
 H          2.6422117032       -1.3025030660       -3.1972594799
 H          0.9567653751       -2.7843016875       -2.2053293764
 C         -0.6253850812       -2.2755411457        0.0185315672
 H         -0.2377685444       -2.5930909093        0.9977387322
 C         -0.9994849223       -3.5069497622       -0.7795800929
 C         -0.1961802692       -4.7649340067       -0.6481741246
 C         -1.5707266441       -4.6883756502       -0.0566681165
 H         -2.3689596093       -5.2437517971       -0.5257756128
 H         -1.6652682961       -4.6137426235        1.0171926435
 H         -0.0517572834       -5.3786024980       -1.5244849888
 H          0.6458466169       -4.7526836485        0.0270276932
 H         -1.4194703605       -3.2624981756       -1.7482698977
 O         -2.2050837796       -0.8990433862       -1.9596086360
