  62
        -98.94338879
 C          0.7169974660        1.8692800534        0.1005169046
 C          1.4757157722        1.1764467880        1.0701842964
 C          2.7082731541        0.5173564387        0.6035070803
 C          3.0383560795        0.5856436299       -0.6997138776
 C          4.2251401160        0.0281541771       -1.4574793489
 C          5.1395914028       -1.0155302838       -0.8220893649
 C          4.4895122768       -2.3800537644       -0.5972876531
 H          5.2062045396       -3.0168892454       -0.0733118441
 H          4.2873571275       -2.8351299254       -1.5703828259
 C          3.1769823993       -2.3657468748        0.1827102446
 H          2.8376776860       -3.4011412176        0.2837656483
 H          2.4097840896       -1.8450590242       -0.3964765298
 C          3.2637261206       -1.7638683464        1.5843215347
 H          4.0664408323       -2.2527889698        2.1401156477
 H          2.3230971973       -1.9859529890        2.0947613750
 C          3.4833153769       -0.2414809645        1.6432657126
 H          4.5406230572        0.0063901446        1.5810933968
 H          3.1200530523        0.1144544012        2.6120061537
 H          5.5598070723       -0.6367012674        0.1049712997
 H          5.9740272336       -1.1591890769       -1.5140701569
 H          4.8315555237        0.8957304034       -1.7414271461
 H          3.8131987251       -0.3781275900       -2.3873458314
 O          2.2853206462        1.2864074290       -1.5973434612
 C          1.1107692272        1.9260408825       -1.2358584804
 O          0.5290729465        2.5000434321       -2.1761967228
 O          1.1398201505        1.1076953677        2.2839676326
 C         -0.5908576916        2.5101798463        0.5153550702
 C         -1.7773736073        1.8663324799       -0.1659974443
 C         -3.0135301763        2.5007550671       -0.2421512146
 C         -4.0895739855        1.8697467550       -0.8405514040
 C         -3.9683436889        0.5938534328       -1.3626401617
 C         -2.7378738834       -0.0483861914       -1.2932681211
 C         -1.6628162458        0.5906261393       -0.6955777538
 H         -0.7092069773        0.0898830764       -0.6803228707
 N         -2.5566289753       -1.3318788233       -1.8234397678
 S         -1.4078751416       -2.3735031303       -1.2072935623
 O         -0.0798375509       -1.9412959343       -1.5648354858
 O         -1.8075204040       -3.6693719071       -1.7143283954
 C         -1.6383191603       -2.3233827465        0.5598922446
 C         -0.6873205638       -1.7375355323        1.3679694542
 C         -0.9191435160       -1.6530324380        2.7313078365
 C         -2.0922194762       -2.1649532237        3.2626294701
 C         -3.0332080696       -2.7674421010        2.4403665440
 C         -2.8100280843       -2.8432101129        1.0755446542
 H         -3.5155129652       -3.3076500666        0.4059904036
 H         -3.9414434654       -3.1704655327        2.8585763443
 H         -2.2717087374       -2.0942987854        4.3238204387
 H         -0.1864774616       -1.1657476406        3.3556276579
 H          0.2164791041       -1.3466666213        0.9282385454
 H         -3.3939470836       -1.8060062845       -2.1250219946
 H         -4.8090399150        0.1048140036       -1.8297583292
 H         -5.0406709762        2.3767644362       -0.8978878276
 H         -3.1287970185        3.4934586356        0.1618845303
 H         -0.6802921387        2.3149719167        1.5955895018
 C         -0.5506213397        4.0113015751        0.2975247555
 C         -1.1907040114        4.9462136528        1.2787813412
 C          0.3021755806        4.8502245245        1.2006347893
 H          0.8559937362        5.6713630576        0.7710087112
 H          0.8244857870        4.3420854211        1.9982361484
 H         -1.6653347671        5.8401745321        0.9030335721
 H         -1.6745120186        4.5154833688        2.1425427678
 H         -0.5736758393        4.2768263647       -0.7533221600
