  62
        -98.94392775
 C          1.8312484058        1.1250566980        0.2178896446
 C          2.1837861515        0.1150008719       -0.7090355979
 C          3.6179584215        0.0022542158       -1.0147337265
 C          4.4864338736        0.8490511952       -0.4321467887
 C          5.9762937470        0.8058025711       -0.6078515242
 C          6.6345515293       -0.0773487957        0.4615590788
 C          5.9785256064       -1.4491501752        0.6192215390
 H          6.5434901301       -1.9948748047        1.3780286081
 H          4.9649186683       -1.3185794906        1.0052375326
 C          5.9231117713       -2.2782996179       -0.6714262514
 H          6.2265364963       -3.3023013372       -0.4435797727
 H          6.6353867428       -1.8833364619       -1.3967442240
 C          4.5373883943       -2.3579066586       -1.3150580450
 H          4.5636744199       -3.1338489090       -2.0849599545
 H          3.8010351970       -2.6652711171       -0.5677281128
 C          4.0359108075       -1.0701815466       -1.9808453241
 H          4.7923819128       -0.6943144171       -2.6729195297
 H          3.1388213777       -1.3216165552       -2.5546843312
 H          7.6878455889       -0.2033577637        0.2047947259
 H          6.5780459521        0.4412546614        1.4213732623
 H          6.3632210108        1.8219716441       -0.5156479837
 H          6.2092483616        0.4271711840       -1.6010575446
 O          4.1055660184        1.8212173336        0.4353980514
 C          2.7756772577        1.9765620402        0.7907927900
 O          2.5651112238        2.8901213433        1.6139107563
 O          1.3482263948       -0.6552491668       -1.2512039874
 C          0.3781231580        1.3170408646        0.6119673073
 C         -0.1989439675        0.0276626019        1.1426717479
 C          0.5308436074       -0.7043724692        2.0760212493
 C          0.0385680797       -1.8894777416        2.5857219842
 C         -1.1952396502       -2.3676297921        2.1809734842
 C         -1.9413855956       -1.6362440014        1.2648953327
 C         -1.4459720156       -0.4413331860        0.7592028068
 H         -2.0344698290        0.1036328831        0.0405692028
 N         -3.2175449279       -2.0711176988        0.8891018174
 S         -3.9039557780       -1.7022409619       -0.5862791462
 O         -5.0199342955       -2.6198747460       -0.6898082239
 O         -2.9522562759       -1.7454971272       -1.6706612719
 C         -4.5418804328       -0.0513260401       -0.3867625458
 C         -5.0675233526        0.3302445251        0.8317594499
 C         -5.6035942517        1.6016532251        0.9601892946
 C         -5.6152142974        2.4624217617       -0.1266677391
 C         -5.0894145012        2.0622000188       -1.3452853315
 C         -4.5462387676        0.7936663495       -1.4787392457
 H         -4.1142794736        0.4460552507       -2.4041050545
 H         -5.0992745019        2.7319711693       -2.1907403835
 H         -6.0339556251        3.4510551193       -0.0245263201
 H         -6.0114235906        1.9171692596        1.9069653666
 H         -5.0432235465       -0.3626073071        1.6559811871
 H         -3.4800718220       -2.9884297211        1.2168358220
 H         -1.5776142785       -3.2985789178        2.5708452105
 H          0.6215292806       -2.4507507621        3.3006390791
 H          1.4980558160       -0.3337539189        2.3884965049
 H          0.3818444531        2.0516831492        1.4310469897
 C         -0.4043504520        1.8931574678       -0.5501850574
 C         -1.5674740449        2.8034749918       -0.2974407318
 C         -0.2863027763        3.3579057914       -0.8420227003
 H         -0.2562637669        3.6770902501       -1.8729572649
 H          0.3422879705        3.9419331977       -0.1854200888
 H         -2.4219024326        2.7427720435       -0.9543147135
 H         -1.8168512074        3.0207786411        0.7300328209
 H         -0.4555073001        1.2148655751       -1.3952601469
