  62
        -98.93821413
 C          2.6724696678        1.1968566241        0.2260149899
 C          3.0823624034        0.2580136694        1.2078896313
 C          4.2878463805       -0.5188726719        0.9047148642
 C          4.9466459133       -0.2990605133       -0.2473249139
 C          6.2088363858       -0.9867192064       -0.6922682107
 C          5.9754486043       -2.3438652893       -1.3699581064
 C          5.5549533390       -3.4757903604       -0.4316706535
 H          5.6399636368       -4.4069674215       -0.9953737908
 H          6.2560053138       -3.5348189830        0.4015021247
 C          4.1221239890       -3.3538563851        0.1057589860
 H          3.6181912985       -4.3193000790        0.0216151997
 H          3.5606349726       -2.6460640650       -0.5085331797
 C          4.0277133751       -2.9205148681        1.5687869295
 H          4.4687208525       -3.6885979070        2.2081119918
 H          2.9705235036       -2.8292070657        1.8310279985
 C          4.7085554304       -1.5803111408        1.8756769837
 H          4.3999078850       -1.2588195093        2.8734786613
 H          5.7920966565       -1.6973024640        1.8653860683
 H          6.9117670964       -2.6309888029       -1.8540548981
 H          5.2220560585       -2.2191390197       -2.1510952822
 H          6.8762586754       -1.1143658787        0.1605511789
 H          6.6881006370       -0.3201284485       -1.4125008582
 O          4.5337962718        0.6201667662       -1.1570493024
 C          3.3789726378        1.3724089419       -0.9649199230
 O          3.1228443528        2.1374402473       -1.9115498956
 O          2.4704114989        0.0887653569        2.2971889580
 C          1.4228574545        1.9990941098        0.5412478687
 C          0.1913083517        1.3138509177        0.0062719214
 C          0.0962376660        0.9312241233       -1.3282256646
 C         -1.0477670358        0.3123012792       -1.7983289437
 C         -2.1130163580        0.0553578092       -0.9524512953
 C         -2.0273301821        0.4285828661        0.3817224197
 C         -0.8792364333        1.0563796156        0.8497541314
 H         -0.8116381011        1.3359308004        1.8927152226
 N         -3.0940449504        0.1514976690        1.2502139515
 S         -4.6560232019        0.5299536982        0.7693952450
 O         -4.6696890857        1.6547670259       -0.1362883876
 O         -5.3991522115        0.6856132225        2.0004025049
 C         -5.2172890079       -0.9385012202       -0.0657350649
 C         -5.1194264091       -2.1449981041        0.5993654219
 C         -5.5652463064       -3.2948569826       -0.0323222219
 C         -6.1015815208       -3.2189948535       -1.3092603902
 C         -6.1959500394       -1.9995917260       -1.9621337170
 C         -5.7506469854       -0.8455455189       -1.3362374148
 H         -5.7988746879        0.1231439683       -1.8078647409
 H         -6.6133036602       -1.9426399813       -2.9546463382
 H         -6.4478742432       -4.1157635306       -1.7984244668
 H         -5.4929582056       -4.2450909542        0.4718809529
 H         -4.6989046253       -2.1621179605        1.5910261455
 H         -2.9283212870        0.4236110722        2.2081657956
 H         -3.0045978303       -0.4281461075       -1.3168476487
 H         -1.1104722491        0.0238474415       -2.8367573976
 H          0.9258966137        1.1299111543       -1.9900707642
 H          1.3551334647        1.9797721095        1.6410270254
 C          1.5197988051        3.4604240164        0.1261490341
 C          0.7302769096        4.0681672491       -0.9898291700
 C          0.3913020274        4.4016412096        0.4301352925
 H          0.6230098993        5.3872390620        0.8044354654
 H         -0.5154119945        3.9770014458        0.8358630614
 H          1.2204924254        4.8119873376       -1.5989462692
 H          0.0488697681        3.4389716134       -1.5400279796
 H          2.5236583847        3.8495899837        0.2641071052
