  62
        -98.94803118
 C          1.2577037040        1.0487050127        0.0062103988
 C          1.6245810226       -0.0318490120        0.8425051492
 C          2.6550059832       -0.9346730635        0.3153120226
 C          3.1315490392       -0.7320145653       -0.9265307330
 C          4.2072743498       -1.5527608998       -1.5758810342
 C          5.5986665164       -0.9628299544       -1.3062958660
 C          5.8583440002       -0.6415083345        0.1654235184
 H          6.8791405859       -0.2606366026        0.2395817147
 H          5.1899554479        0.1644832996        0.4764324098
 C          5.6876397679       -1.8354422434        1.1149922159
 H          5.7202930153       -2.7669184365        0.5486880279
 H          6.5270117673       -1.8505506239        1.8133565746
 C          4.4098997097       -1.7991710244        1.9552989001
 H          4.3262103377       -0.8290665396        2.4514971380
 H          4.4941896455       -2.5605097750        2.7352912462
 C          3.1035923493       -2.0663705774        1.1964458755
 H          3.1914272795       -2.9902927861        0.6203892448
 H          2.3091557108       -2.2026913422        1.9364960739
 H          6.3482232818       -1.6707648013       -1.6646462025
 H          5.6996149382       -0.0399030718       -1.8819862392
 H          4.1527653202       -2.5733878415       -1.2013380857
 H          4.0270567121       -1.5630661664       -2.6523598436
 O          2.7128774438        0.2825404025       -1.7252491327
 C          1.7684824816        1.1981504945       -1.2827781305
 O          1.4753845199        2.0764530055       -2.1162199281
 H         -0.8360928295       -0.1638042404       -0.6130774577
 C         -1.4404251049        0.7047203951       -0.8237659041
 C         -1.0337596525        1.9505727781       -0.3673808775
 C         -1.8127848560        3.0565746258       -0.6848927034
 C         -2.9572101071        2.9090468505       -1.4495733106
 C         -3.3653621232        1.6627051307       -1.8892481486
 C         -2.5958704619        0.5494230465       -1.5716540366
 N         -2.9668989994       -0.7381814079       -1.9872634068
 S         -2.6773672382       -2.0397608027       -0.9774335298
 O         -1.2809224313       -2.3979916968       -1.0008589005
 O         -3.5949206496       -3.0584227149       -1.4433681806
 C         -3.1751893599       -1.4779640612        0.6412546460
 C         -4.5267893448       -1.2748549549        0.8479743427
 C         -4.9556972668       -0.7892834391        2.0715554073
 C         -4.0288107684       -0.5093837204        3.0647716462
 C         -2.6779574985       -0.7244581381        2.8444871383
 C         -2.2424448956       -1.2140704608        1.6225055893
 H         -1.1936611393       -1.3812790438        1.4324966174
 H         -1.9480655589       -0.5093846396        3.6087973789
 H         -4.3599685298       -0.1239867701        4.0161537140
 H         -6.0069451572       -0.6269867193        2.2464307383
 H         -5.2163884711       -1.5148321369        0.0550631006
 H         -3.8678053269       -0.8004586172       -2.4378102696
 H         -4.2612444095        1.5502616550       -2.4800807860
 H         -3.5465792561        3.7780055402       -1.6995226591
 H         -1.5190971644        4.0348361419       -0.3413502000
 C          0.2060068945        2.0280169898        0.4906757371
 H         -0.0689756332        1.6830188438        1.4997812751
 C          0.7806861467        3.4257361462        0.5945007409
 C          0.2934924433        4.3709284080        1.6508640936
 C          1.6570440909        3.7606046323        1.7632782534
 H          2.5216280853        4.3857072686        1.5977923186
 H          1.8132911165        2.9877113698        2.5018672500
 H          0.2234725790        5.4208808588        1.4095360808
 H         -0.4739080581        4.0184146447        2.3231783375
 H          1.0581744893        3.8320969495       -0.3715046080
 O          1.1094672690       -0.2330324396        1.9762571850
