  62
        -98.94671991
 C         -1.9900389167       -1.4576855432       -0.0817110033
 C         -1.7146360654       -0.2265675670       -0.7216387713
 C         -2.8651349614        0.6676345981       -0.9125750384
 C         -4.0859141134        0.2647522598       -0.5152713148
 C         -5.3326766815        1.0955589751       -0.6027388310
 C         -5.5519309998        1.9070968993        0.6820722721
 C         -4.3140184806        2.6725198387        1.1498355574
 H         -3.5434901547        1.9569781441        1.4460266332
 H         -4.5966175044        3.2292919997        2.0458880190
 C         -3.7332561469        3.6398755944        0.1089738462
 H         -3.5015691723        4.5861165235        0.6022405863
 H         -4.4786805219        3.8492409865       -0.6590627293
 C         -2.4430079429        3.1553669812       -0.5551631947
 H         -1.7309674734        2.8473244117        0.2151649152
 H         -2.0040756572        3.9976692306       -1.0969091774
 C         -2.6022404589        2.0013442212       -1.5532872852
 H         -1.6570678033        1.8917775150       -2.0936035473
 H         -3.3834558440        2.2441560618       -2.2763735525
 H         -5.8506507997        1.2207911675        1.4778814128
 H         -6.3723373336        2.6067176390        0.5120918628
 H         -5.2582851444        1.7633437294       -1.4588420384
 H         -6.1824289319        0.4265525128       -0.7485998101
 O         -4.3167057720       -0.9419623600        0.0633334755
 C         -3.2771690100       -1.8233465628        0.3119743228
 O         -3.6200137358       -2.8795088426        0.8806056273
 H          1.8637231527       -2.1280015955       -0.2896269531
 C          1.5336329656       -1.6885212139        0.6361690414
 C          0.2039719675       -1.7507619743        1.0204147210
 C         -0.1701845309       -1.1626180917        2.2271376527
 C          0.7593669671       -0.5200803410        3.0206382975
 C          2.0831242466       -0.4412056026        2.6225367408
 C          2.4683038419       -1.0278157542        1.4241432624
 N          3.8110823433       -0.9843535784        1.0025080921
 S          4.1926357395       -0.3131774197       -0.4846697269
 O          3.5432126502       -1.0485527556       -1.5373707133
 O          5.6395840440       -0.2978466669       -0.5147121021
 C          3.5877169868        1.3628094999       -0.3934811592
 C          2.2433431902        1.6159187212       -0.5771642108
 C          1.7892940577        2.9189380836       -0.4374387663
 C          2.6739636541        3.9366204944       -0.1179229945
 C          4.0215788347        3.6633183401        0.0639287806
 C          4.4835195630        2.3645692697       -0.0701122853
 H          5.5224031172        2.1057780114        0.0573592782
 H          4.7099499255        4.4556649457        0.3105699585
 H          2.3107621649        4.9467802259       -0.0116262298
 H          0.7395075923        3.1203861725       -0.5809610789
 H          1.5630375476        0.8167889856       -0.8259954376
 H          4.4415357729       -0.6127114905        1.6997151084
 H          2.8115821397        0.0663323311        3.2367537987
 H          0.4521175155       -0.0705670739        3.9528512837
 H         -1.2069173204       -1.2184056701        2.5319344297
 C         -0.8581554020       -2.4321974118        0.1921482078
 H         -1.2929213963       -3.2442719909        0.7931627536
 C         -0.3387842623       -3.0146046233       -1.1052953994
 C          0.3057988904       -4.3668748118       -1.1153785478
 C         -1.0546223746       -4.1800740838       -1.7157218986
 H         -1.1557235048       -4.2184748979       -2.7900499183
 H         -1.9090040528       -4.5713955374       -1.1822808651
 H          0.3770245094       -4.8938396541       -0.1757582359
 H          1.1429045755       -4.5316624133       -1.7772254597
 H          0.0522578657       -2.2615474575       -1.7805483056
 O         -0.5674951701        0.1136458475       -1.1106991918
