  62
        -98.94209583
 C         -0.9042108799       -1.1379375395        0.6945752406
 C         -1.5172324996       -1.0340827503       -0.5749984297
 C         -2.2993516496        0.1896756895       -0.8249404907
 C         -2.3535895998        1.1375145601        0.1258686387
 C         -3.1150826698        2.4342844401        0.0862581477
 C         -4.5117918200        2.2692421305        0.7096118874
 C         -5.5997665197        1.8058503498       -0.2579392125
 H         -6.4977619999        1.6101412002        0.3324305273
 H         -5.8330129696        2.6170081694       -0.9508118131
 C         -5.2626158495        0.5524364893       -1.0692778417
 H         -4.7848025597       -0.1869077103       -0.4240543911
 H         -6.2005166394        0.1183041391       -1.4208360116
 C         -4.3647291092        0.8411720685       -2.2818853616
 H         -4.3278624892        1.9170149084       -2.4527937023
 H         -4.8113413490        0.4017917180       -3.1763950314
 C         -2.9367617192        0.2851132686       -2.1834966009
 H         -2.9169690191       -0.7389283216       -2.5707105902
 H         -2.2717494491        0.8707334082       -2.8288029011
 H         -4.8215885201        3.2274265107        1.1315485067
 H         -4.4271304302        1.5587971010        1.5356690479
 H         -3.1766241996        2.8110584394       -0.9306762826
 H         -2.5480627100        3.1478454405        0.6883476674
 O         -1.7273444201        1.0076038009        1.3287812490
 C         -0.9790236002       -0.1144991889        1.6368811899
 O         -0.4364052205       -0.0815521081        2.7598105100
 O         -1.4260711194       -1.9257190409       -1.4601849491
 C         -0.0262237000       -2.3346189892        1.0168210616
 C          1.1058220903       -2.3821724699        0.0185207919
 C          1.5171110305       -3.5333344303       -0.6391143373
 C          2.5365854507       -3.4741193509       -1.5744981870
 C          3.1524127308       -2.2748742211       -1.8822539676
 C          2.7576618706       -1.1195479506       -1.2164327185
 C          1.7628793003       -1.1896941600       -0.2571507087
 H          1.4593646602       -0.2911787897        0.2600728606
 N          3.3610301206        0.1192490792       -1.4788166791
 S          2.4534121206        1.5215988193       -1.3824836203
 O          1.0937249207        1.3271898589       -1.8302273905
 O          3.2279682507        2.4942311588       -2.1269609807
 C          2.4892525401        1.9588846104        0.3420403295
 C          3.6737556099        1.8346329208        1.0405833898
 C          3.6982685996        2.1895586217        2.3795797596
 C          2.5475376894        2.6619545221        2.9925070590
 C          1.3684903396        2.7886998816        2.2751831886
 C          1.3385204399        2.4367935207        0.9356879389
 H          0.4373825201        2.5015753503        0.3447708186
 H          0.4689053794        3.1415439019        2.7533929182
 H          2.5651893591        2.9290602527        4.0373037189
 H          4.6120716794        2.0916407221        2.9433034599
 H          4.5455558301        1.4576252305        0.5324609403
 H          4.0058132708        0.1318623687       -2.2554267290
 H          3.9268716310       -2.2279119415       -2.6325269475
 H          2.8433421609       -4.3738122512       -2.0861758764
 H          1.0313745904       -4.4727907602       -0.4321995668
 H          0.4006545697       -2.1394230686        2.0117020916
 C         -0.8426264100       -3.6078086892        1.0745294622
 C         -0.4068655402       -4.7426858387        1.9507761530
 C         -1.6026688703       -3.9219716684        2.3269048822
 H         -2.5834444403       -4.3643805185        2.2377264822
 H         -1.5104675205       -3.2268915179        3.1489162318
 H         -0.5692224301       -5.7525915289        1.6056373936
 H          0.4971892197       -4.6115451683        2.5257911632
 H         -1.3173282197       -3.8404921598        0.1283844622
