  62
        -98.93463154
 C         -1.7139094899       -0.2461448469        0.4256043493
 C         -2.8985625140       -0.4104030112        1.1826895229
 C         -4.1638964315       -0.5550119104        0.4367630858
 C         -4.1296286750       -0.4918640025       -0.9071261335
 C         -5.2819408742       -0.5679396722       -1.8730084627
 C         -6.0970098951        0.7344754359       -1.9257254399
 C         -6.3988820645        1.3604795537       -0.5665863589
 H         -6.8793738476        2.3261338588       -0.7452590307
 H         -5.4598411730        1.5585614201       -0.0464164806
 C         -7.3177358667        0.5425078299        0.3377874664
 H         -8.2704345928        0.3810467840       -0.1716143604
 H         -7.5158686310        1.1445203515        1.2284164782
 C         -6.7743381877       -0.8133703162        0.7932947521
 H         -6.8534444999       -1.5536626257        0.0017047192
 H         -7.4140823237       -1.1624387867        1.6092004890
 C         -5.3513724992       -0.7781579353        1.3420255577
 H         -5.1541485051       -1.7255127576        1.8587051726
 H         -5.2857288960       -0.0091278277        2.1202688347
 H         -7.0315921264        0.5356877558       -2.4529331324
 H         -5.5291796927        1.4640666354       -2.5083110407
 H         -5.9178602340       -1.4138752505       -1.6294316680
 H         -4.8516415168       -0.7480853889       -2.8605789978
 O         -2.9695438703       -0.2935087484       -1.5944162229
 C         -1.7420145341       -0.1630777345       -0.9667765470
 O         -0.7905376527        0.0188345085       -1.7481550560
 O         -2.9073489100       -0.4271795226        2.4435729421
 C         -0.4082095950       -0.0929258164        1.1832510992
 C          0.3809751314        1.0733259479        0.6440806875
 C         -0.2263922388        2.3261595196        0.5901803284
 C          0.4521681290        3.4212361833        0.0949325098
 C          1.7640065949        3.2993339458       -0.3307349936
 C          2.3837207999        2.0592104199       -0.2686890863
 C          1.6900611991        0.9551153659        0.2079427430
 H          2.1842872599       -0.0011647176        0.2187685583
 N          3.7133080044        1.8898384832       -0.6873778601
 S          4.7510739792        1.0095285621        0.2882964950
 O          4.4061132427        1.1463150038        1.6846688675
 O          6.0759233498        1.4589371664       -0.0845649248
 C          4.5584056617       -0.6833646775       -0.2262748763
 C          4.4366478490       -1.6695558943        0.7325533893
 C          4.3342759128       -2.9909720090        0.3268815101
 C          4.3568799988       -3.3010320196       -1.0244876278
 C          4.4798295852       -2.2984411986       -1.9746100437
 C          4.5853096965       -0.9758184781       -1.5752874807
 H          4.6831984365       -0.1717442659       -2.2851646871
 H          4.4928321188       -2.5438858737       -3.0242800664
 H          4.2745032086       -4.3297768697       -1.3383372874
 H          4.2355351875       -3.7714002694        1.0647608973
 H          4.4147631935       -1.3820776289        1.7718166419
 H          4.1568365683        2.7272481683       -1.0362970726
 H          2.2995255024        4.1558818471       -0.7118844990
 H         -0.0382604819        4.3821834781        0.0479921768
 H         -1.2481904799        2.4256140848        0.9317720287
 H         -0.7188702860        0.1615134383        2.2113625795
 C          0.4077088377       -1.3733831092        1.2831867504
 C         -0.2466128847       -2.7192020364        1.2026436677
 C          0.6520865877       -2.2564393001        0.0973675439
 H          1.6226877356       -2.7193427561       -0.0043814814
 H          0.2087414192       -1.9612140571       -0.8402583032
 H          0.1046387975       -3.4984081360        1.8620964791
 H         -1.3109553494       -2.7486911069        1.0195614214
 H          1.2220811063       -1.2782096510        1.9958981359
