  62
        -98.93673333
 C          2.5658168926        0.0626484379        0.0554291023
 C          2.4068985547       -1.0304838501        0.9344958817
 C          1.9646688536       -2.3086052737        0.3462345750
 C          1.7114383725       -2.3578434394       -0.9748716171
 C          1.2218936886       -3.5231925221       -1.7945894394
 C         -0.2766972612       -3.7950782909       -1.6035929556
 C         -0.7403074455       -3.8233398980       -0.1503709183
 H         -1.8235341434       -3.9736370701       -0.1570380562
 H         -0.5593871396       -2.8420300140        0.2926343990
 C         -0.1215738680       -4.9201575184        0.7140581782
 H         -0.3205988235       -5.8903034350        0.2533554652
 H         -0.6366582968       -4.8983059904        1.6777579452
 C          1.3817370054       -4.8067424623        0.9826772860
 H          1.9649764038       -5.1726574876        0.1418263509
 H          1.6105582255       -5.4627287904        1.8275915203
 C          1.8528959332       -3.4101262313        1.3729328794
 H          2.8491878211       -3.4888493389        1.8245859495
 H          1.2069928220       -3.0209276650        2.1685394294
 H         -0.5185068574       -4.7430475113       -2.0887103778
 H         -0.8320687638       -2.9995671859       -2.1079788843
 H          1.8055434187       -4.4120177267       -1.5733520922
 H          1.3955939202       -3.2605343253       -2.8407965209
 O          1.8602346020       -1.2694618965       -1.7841320540
 C          2.2548472374       -0.0386579965       -1.3001248168
 O          2.3090083114        0.8624795869       -2.1601481720
 O          2.6180335400       -0.9459947181        2.1770803618
 C          2.9386142485        1.4232867975        0.6225131794
 C          1.7520864713        2.3320974139        0.4154209217
 C          1.7992848960        3.5577132748       -0.2342226326
 C          0.6339485325        4.2616113051       -0.4916659394
 C         -0.5994494005        3.7563857656       -0.1206085060
 C         -0.6495757653        2.5497726612        0.5601475078
 C          0.5158200811        1.8614737064        0.8409166080
 H          0.4601552726        0.9072691949        1.3511335740
 N         -1.9178888247        1.9706508270        0.8793476672
 S         -2.2758984706        0.7916394416       -0.2901780438
 O         -1.4959667582       -0.4047000827       -0.0532674118
 O         -2.1498874761        1.4051989150       -1.5880168200
 C         -3.9958597078        0.4733622144        0.0588054395
 C         -4.3811695662       -0.7360595455        0.6023281355
 C         -5.7213816580       -0.9444686759        0.8904494609
 C         -6.6456548601        0.0568863497        0.6357714422
 C         -6.2424447711        1.2671044049        0.0903648772
 C         -4.9052137430        1.4804263247       -0.2018416704
 H         -4.5441603437        2.3995541852       -0.6320953988
 H         -6.9644191238        2.0429434794       -0.1070032359
 H         -7.6872128919       -0.1072562953        0.8626446575
 H         -6.0370081076       -1.8849961508        1.3125844103
 H         -3.6262837705       -1.4853442273        0.7809622591
 H         -1.8760670263        1.4849204222        1.7679946565
 H         -1.5156232390        4.2700629675       -0.3607069341
 H          0.6875323120        5.2048222920       -1.0138298546
 H          2.7469534719        3.9498429568       -0.5659487653
 H          3.0774436117        1.2652817881        1.7022325609
 C          4.2273987345        1.9447188172        0.0283895480
 C          5.0486901093        2.9452249826        0.7843733640
 C          5.5304049346        1.5335757736        0.6434080810
 H          6.3668064982        1.3343928211       -0.0093207580
 H          5.4884832471        0.8881240607        1.5085678700
 H          5.5588403413        3.7174488093        0.2290704753
 H          4.6841835967        3.2621400181        1.7497006979
 H          4.1853471577        2.0232948906       -1.0519082514
