  62
        -98.94424806
 C         -1.9685413000       -1.3395804175        0.0497940334
 C         -2.2580260190       -0.3860261385       -0.9560625185
 C         -3.6451934410        0.1025409607       -0.9980994272
 C         -4.5445909438       -0.3683124152       -0.1161741739
 C         -5.9709074474        0.0864302871       -0.0144632167
 C         -6.1138631615        1.2512515045        0.9751509358
 C         -5.1081944760        2.3806642749        0.7507658555
 H         -5.3254109639        3.1598070456        1.4847280680
 H         -4.1022222821        2.0114953703        0.9644691737
 C         -5.1363349025        2.9858361690       -0.6597327366
 H         -6.0741347797        2.7298729220       -1.1542003289
 H         -5.1017072290        4.0740112793       -0.5740749480
 C         -3.9640089642        2.5723342441       -1.5514608073
 H         -3.0233824155        2.7412529567       -1.0205136130
 H         -3.9628422037        3.2201014888       -2.4323275459
 C         -3.9843609133        1.1216237500       -2.0495344829
 H         -4.9534323770        0.9015155254       -2.5016674908
 H         -3.2152500801        1.0250080213       -2.8213288957
 H         -7.1289217256        1.6454805596        0.8999008468
 H         -5.9734094813        0.8651901310        1.9874310261
 H         -6.3227712372        0.3874006905       -0.9992860173
 H         -6.5745414947       -0.7522937867        0.3364522256
 O         -4.2353553493       -1.2930971183        0.8270797906
 C         -2.9488091589       -1.7872387366        0.9423175193
 O         -2.8023112024       -2.6178261267        1.8607459210
 H          0.6339270487        0.2513999853       -0.8202668135
 C          0.8660852199        0.1350378495        0.2273464652
 C          0.3117747935       -0.9224471741        0.9345532759
 C          0.5922954328       -1.0340342967        2.2917546014
 C          1.4071114991       -0.1106628261        2.9234594159
 C          1.9577141874        0.9426796444        2.2151237982
 C          1.6758205848        1.0661307108        0.8610762917
 N          2.2387244627        2.1343188189        0.1284279792
 S          3.9123876593        2.1344929379        0.0354649600
 O          4.4545186356        2.4990265766        1.3199088434
 O          4.2452086635        3.0045172624       -1.0694992396
 C          4.3288186071        0.4440375915       -0.3494888530
 C          4.2687413060        0.0372138410       -1.6673663450
 C          4.5073711497       -1.2933629257       -1.9697370768
 C          4.7866044192       -2.1923125031       -0.9517144138
 C          4.8395057448       -1.7684221249        0.3668948113
 C          4.6082020622       -0.4375651949        0.6751446849
 H          4.6451993422       -0.0677891518        1.6864588692
 H          5.0564214281       -2.4701764170        1.1559383873
 H          4.9654797353       -3.2296267072       -1.1875434328
 H          4.4697192478       -1.6246795784       -2.9953045065
 H          4.0509666973        0.7680603603       -2.4298463642
 H          1.8489609322        2.2122187443       -0.8009190376
 H          2.6028453543        1.6669168875        2.6860999710
 H          1.6149217200       -0.2111972072        3.9779716415
 H          0.1540635812       -1.8475503440        2.8521415636
 C         -0.5809076806       -1.9309035005        0.2521595254
 H         -0.7188074518       -2.7740525344        0.9414532540
 C          0.0357500637       -2.4536280023       -1.0308714354
 C          1.2374199442       -3.3439794638       -0.9426855814
 C         -0.0850904791       -3.9085673885       -1.3647004108
 H         -0.2222044571       -4.1892583343       -2.3982336887
 H         -0.6178611877       -4.5397434372       -0.6682607329
 H          2.0128462929       -3.2352208788       -1.6847473953
 H          1.6032279514       -3.5894818501        0.0426800988
 H         -0.0133735706       -1.7533462437       -1.8536659768
 O         -1.4204943181        0.0477924074       -1.7919543827
