  62
        -98.94278893
 C         -1.9927893202       -1.4637811450       -0.0551242202
 C         -1.6929127552       -0.1463871222       -0.4776134117
 C         -2.8500106625        0.7182286422       -0.7570829191
 C         -4.0941196817        0.2336569241       -0.5976117088
 C         -5.3546520749        1.0253672567       -0.7871256901
 C         -5.7973304578        1.6844798010        0.5271068791
 C         -4.6792927428        2.4347163943        1.2515441135
 H         -5.1159870273        2.8789100937        2.1487130853
 H         -3.9251404998        1.7173359737        1.5833606642
 C         -4.0027809488        3.5305592317        0.4160313974
 H         -3.8926170308        4.4236458284        1.0346976007
 H         -4.6397292380        3.7980773805       -0.4279379949
 C         -2.6076786745        3.1686091795       -0.0971569828
 H         -1.9928088057        2.8110478621        0.7328303800
 H         -2.1430212057        4.0796867206       -0.4836428937
 C         -2.5639622988        2.1204306411       -1.2161291794
 H         -3.2448176099        2.4098612665       -2.0191641527
 H         -1.5468167609        2.1021423797       -1.6188216735
 H         -6.6174565268        2.3710957898        0.3093176276
 H         -6.1746999196        0.9058766273        1.1942464725
 H         -5.1902492835        1.7844340383       -1.5494935552
 H         -6.1399373839        0.3475099867       -1.1260300495
 O         -4.3446044956       -1.0352974692       -0.1843406109
 C         -3.3079222951       -1.9050329722        0.1132581460
 O         -3.6796411606       -3.0240205545        0.5191445510
 H          1.8147820947       -2.0956605434       -0.2241053354
 C          1.4969940471       -1.7034978813        0.7269636308
 C          0.1707686500       -1.7840757035        1.1209441178
 C         -0.1954102580       -1.2371432845        2.3490430104
 C          0.7384985349       -0.6150704896        3.1535022403
 C          2.0602565910       -0.5274696208        2.7519801854
 C          2.4388461395       -1.0745061094        1.5322231130
 N          3.7842131878       -1.0361728016        1.1252687476
 S          4.2506302911       -0.4864990605       -0.3840153368
 O          3.5911473030       -1.2461742831       -1.4135129624
 O          5.6958575360       -0.5643977478       -0.3618285010
 C          3.7615942786        1.2289820435       -0.4348048660
 C          4.7412809841        2.1967624590       -0.3172767011
 C          4.3714656498        3.5315467585       -0.3106428599
 C          3.0314421247        3.8753620546       -0.4099000799
 C          2.0620356121        2.8912397294       -0.5212700012
 C          2.4235200415        1.5524354389       -0.5362643336
 H          1.6753909160        0.7810011202       -0.6230041306
 H          1.0164389138        3.1456601589       -0.5942612308
 H          2.7407931547        4.9142022148       -0.4008791631
 H          5.1258177866        4.2972495946       -0.2257415747
 H          5.7697132874        1.8822156102       -0.2415452411
 H          4.4097474716       -0.6579426401        1.8227161151
 H          2.7928320343       -0.0418663092        3.3789084059
 H          0.4368935539       -0.1918078086        4.0998858846
 H         -1.2298137194       -1.3030181807        2.6601160036
 C         -0.8943793067       -2.4553421655        0.2875207155
 H         -1.3831593041       -3.2154055100        0.9202325638
 C         -0.3294110855       -3.1936227633       -0.9167737704
 C         -1.1651278652       -3.4593297021       -2.1323528463
 C         -0.0164992625       -2.5009766163       -2.2073722421
 H          0.8752170123       -2.7935718924       -2.7429726419
 H         -0.2292147254       -1.4459302789       -2.2729505346
 H         -2.1685248460       -3.0585505231       -2.1493855385
 H         -1.0710323330       -4.4189567517       -2.6181068057
 H          0.3458763706       -3.9911915508       -0.6204463697
 O         -0.5262148460        0.3010591426       -0.6151823307
