  62
        -98.94478483
 C         -1.9455505501       -0.4899921015       -0.6131146891
 C         -3.0013402901       -1.3014904603       -0.1326827370
 C         -4.3508778101       -0.7331830507       -0.2432989884
 C         -4.5072908402        0.4862547779       -0.7904456117
 C         -5.8177536802        1.2073094575       -0.9140264636
 C         -6.0835526503        2.0906547207        0.3130804441
 C         -5.8863217402        1.3707982842        1.6472007360
 H         -4.8303909102        1.1146930446        1.7604129667
 H         -6.1308105503        2.0820280863        2.4391692041
 C         -6.7367146601        0.1040677346        1.8169410794
 H         -7.1776556601        0.1098384672        2.8159768994
 H         -7.5587809201        0.1111872027        1.1003690694
 C         -5.9581811300       -1.2058208057        1.6816007128
 H         -5.0803350800       -1.1787971339        2.3319745427
 H         -6.5990654100       -2.0196934948        2.0308811750
 C         -5.4963264400       -1.5640126494        0.2634135238
 H         -6.3433896200       -1.5124784913       -0.4235470064
 H         -5.1321393300       -2.5953205593        0.2833224765
 H         -5.4007988204        2.9429180007        0.2798829519
 H         -7.1048225003        2.4707460405        0.2498579931
 H         -5.7800956503        1.8384278151       -1.8035343752
 H         -6.6180311002        0.4791019771       -1.0308613116
 O         -3.4707986402        1.2295725167       -1.2554626836
 C         -2.1642270502        0.7689084470       -1.1723527124
 O         -1.3134010503        1.5579019359       -1.6248162545
 O         -2.8220185500       -2.4440766689        0.3681545061
 C         -0.5227884001       -1.0140203911       -0.5209318377
 C          0.3123286999       -0.0685374589        0.3054886698
 C         -0.0995107701        0.2151106345        1.6063360790
 C          0.6068600698        1.1008799267        2.3948474967
 C          1.7476466397        1.7156789855        1.9076036250
 C          2.1712533798        1.4366891421        0.6145552158
 C          1.4584762098        0.5428107799       -0.1755295319
 H          1.8009068398        0.3620028573       -1.1798662014
 N          3.3125401197        2.0646928308        0.0916459641
 S          4.4557029298        1.2046642186       -0.7700297937
 O          5.5997273297        2.0873271785       -0.8297577160
 O          3.9184970798        0.7693284452       -2.0330639425
 C          4.8287545899       -0.1972571287        0.2671580000
 C          4.1722415399       -1.3938334892        0.0635563632
 C          4.4282241900       -2.4509446870        0.9229980160
 C          5.3291843600       -2.2940483341        1.9647434056
 C          5.9831028799       -1.0857795136        2.1538564124
 C          5.7288610899       -0.0243957059        1.3009740696
 H          6.2232556598        0.9278236244        1.4056247571
 H          6.6866375899       -0.9684429414        2.9622861221
 H          5.5245420801       -3.1196294024        2.6308034778
 H          3.9219222301       -3.3916729574        0.7759732685
 H          3.4821532899       -1.4799061115       -0.7592850465
 H          3.7570219797        2.7151946825        0.7226673424
 H          2.2966883797        2.4162636371        2.5181937532
 H          0.2701398098        1.3157182193        3.3978205861
 H         -0.9927415001       -0.2633736445        1.9844495003
 H         -0.6013865200       -1.9686894397        0.0199604348
 C          0.0351170199       -1.2840246047       -1.9014568670
 C          1.0859017700       -2.3347997652       -2.0940704043
 C         -0.3096727600       -2.5709443166       -2.5867982336
 H         -0.4941979100       -2.5544844894       -3.6504806437
 H         -0.9314467499       -3.2695747252       -2.0461622018
 H          1.8663795900       -2.1555444970       -2.8190932847
 H          1.4055610400       -2.8835778028       -1.2208116828
 H          0.0848291399       -0.3931282464       -2.5180377794
