  62
        -98.93921970
 C         -1.7994676641       -0.7474028160        0.5442850812
 C         -3.1065402792       -0.7514586904        1.0966757715
 C         -3.9461693436        0.4130014681        0.7874762903
 C         -3.4266454222        1.4224178224        0.0659285830
 C         -4.1851922131        2.6392464965       -0.3761114812
 C         -4.8234136725        2.4217304500       -1.7553798140
 C         -5.6034552195        1.1124429380       -1.8764015892
 H         -6.0321491096        1.0812114198       -2.8804812762
 H         -4.9071379566        0.2737960547       -1.8005751695
 C         -6.7205478416        0.9398286548       -0.8375580523
 H         -6.9712800104        1.9066642188       -0.3997392338
 H         -7.6151456520        0.5716545352       -1.3441831639
 C         -6.4008916353       -0.0547115843        0.2802001864
 H         -6.0621676267       -0.9985209656       -0.1552772763
 H         -7.3251987636       -0.2609793971        0.8262523317
 C         -5.3568547689        0.4067975916        1.3048771037
 H         -5.6308427731        1.3903017653        1.6915550146
 H         -5.3683457065       -0.3055804115        2.1349831725
 H         -5.4867330868        3.2626388467       -1.9656582582
 H         -4.0308181263        2.4180279550       -2.5074921481
 H         -4.9537735426        2.8694098662        0.3591423266
 H         -3.4885682616        3.4769737046       -0.4362645220
 O         -2.1470351438        1.4251954568       -0.3838138226
 C         -1.3014508865        0.3426176072       -0.1706541868
 O         -0.1629971817        0.4955826500       -0.6503005538
 H          1.4584086870       -2.4084460610       -0.5330265206
 C          1.5751243026       -1.8512424497        0.3838801518
 C          0.4703513007       -1.5444350702        1.1637478792
 C          0.6637352140       -0.7910436262        2.3189577701
 C          1.9210975847       -0.3452721908        2.6769015273
 C          3.0178326355       -0.6411863479        1.8859294264
 C          2.8369503601       -1.3950402331        0.7355312503
 N          3.9719666166       -1.6594495353       -0.0808226425
 S          4.2242061363       -0.4787623581       -1.2672851418
 O          3.1683293747       -0.5164669593       -2.2566832489
 O          5.5510328328       -0.7336085679       -1.7885621040
 C          4.2042057200        1.0491806720       -0.3624351034
 C          5.3988155791        1.5381690304        0.1296265552
 C          5.3891290192        2.7131370814        0.8634111497
 C          4.1898503935        3.3706731018        1.0936686421
 C          3.0007090561        2.8642305428        0.5918035806
 C          3.0000263408        1.6898579545       -0.1454935331
 H          2.0876759403        1.2682691025       -0.5399855675
 H          2.0658107369        3.3706555082        0.7727779237
 H          4.1798545147        4.2838801359        1.6678189657
 H          6.3119290653        3.1105836522        1.2542680367
 H          6.3036801552        0.9909784910       -0.0785686924
 H          3.8904776558       -2.5433917329       -0.5684188771
 H          4.0052969203       -0.2973762584        2.1474506801
 H          2.0493992957        0.2405258620        3.5740322796
 H         -0.1964779611       -0.5472050159        2.9277532252
 C         -0.9302134393       -1.9654405475        0.8009644655
 H         -1.3834893364       -2.4456695981        1.6844143922
 C         -0.9751071514       -2.9928204490       -0.3212262806
 C         -2.1858681874       -3.1367591364       -1.1923753009
 C         -0.9113211682       -2.5977532796       -1.7654756843
 H         -0.3491607715       -3.2204592106       -2.4469423220
 H         -0.8480784225       -1.5448466131       -1.9951077562
 H         -2.4989153612       -4.1303344798       -1.4757949188
 H         -3.0045536814       -2.4508446995       -1.0314851830
 H         -0.4714166865       -3.9152842756       -0.0470021826
 O         -3.5467807878       -1.6862096666        1.8167249928
