  62
        -98.94596480
 C         -1.1983916440       -0.9486351019       -0.5014835603
 C         -2.3112526278       -1.2310496251        0.3323385301
 C         -3.0909778717       -0.0802754959        0.8023203831
 C         -2.6940078382        1.1597577601        0.4647370236
 C         -3.4111751181        2.4232128581        0.8421405304
 C         -4.4357934165        2.8242333100       -0.2284456317
 C         -5.3565537043        1.6822456224       -0.6584126431
 H         -6.0551562165        2.0870147913       -1.3937577783
 H         -4.7625444402        0.9179248029       -1.1643978504
 C         -6.1419766173        1.0336956132        0.4899490374
 H         -6.1476778574        1.6966070634        1.3559352161
 H         -7.1793102045        0.9026590297        0.1748869737
 C         -5.6276055055       -0.3440577826        0.9115638644
 H         -5.5309330559       -0.9842705184        0.0311820371
 H         -6.3742759736       -0.7997366621        1.5673647145
 C         -4.2908163348       -0.3567881280        1.6642114970
 H         -4.3321463801        0.3427464390        2.5020681741
 H         -4.1440364213       -1.3636297413        2.0663757177
 H         -5.0340051254        3.6508536254        0.1592982960
 H         -3.8952511321        3.1784821334       -1.1090446196
 H         -3.9070931091        2.2787223768        1.8002500372
 H         -2.6719314163        3.2195297781        0.9459190163
 O         -1.6094724926        1.3981453261       -0.3107888157
 C         -0.8347297241        0.3617016202       -0.8153098797
 O          0.1149764329        0.7573183789       -1.5187204559
 O         -2.6424649461       -2.4028274919        0.6621720925
 C         -0.3870860704       -2.1460316518       -0.9690514194
 C          0.7588827762       -2.3952224759       -0.0170003092
 C          0.9266159855       -3.6281158383        0.6020441888
 C          1.9587126378       -3.8275602386        1.5020267807
 C          2.8234014434       -2.7960621272        1.8208195731
 C          2.6622867388       -1.5594329832        1.2062896487
 C          1.6547857039       -1.3762583153        0.2723668399
 H          1.5442845940       -0.4156075601       -0.2032806621
 N          3.5071280517       -0.4806444089        1.5055607039
 S          2.8593609994        1.0650026319        1.5740850109
 O          3.7825276349        1.7974084415        2.4205019554
 O          1.4856225934        1.0503733471        2.0245486773
 C          2.9989508148        1.7069632982       -0.0782907523
 C          2.1179270493        2.6893959889       -0.4797456439
 C          2.2579837627        3.2393216799       -1.7435218883
 C          3.2709901700        2.7980050207       -2.5789166513
 C          4.1490568234        1.8105068221       -2.1596273833
 C          4.0174689662        1.2595993780       -0.8955285213
 H          4.6772979259        0.4854963465       -0.5402477195
 H          4.9328005777        1.4653300919       -2.8148883201
 H          3.3724730371        3.2232680361       -3.5651754423
 H          1.5679332157        3.9996291437       -2.0726802645
 H          1.3298916491        2.9903118149        0.1926923226
 H          4.1671787263       -0.6436429011        2.2522328832
 H          3.6113120187       -2.9408415189        2.5442389162
 H          2.0789912235       -4.7895533721        1.9766936014
 H          0.2296910327       -4.4255964899        0.3907074794
 H         -1.0695802869       -3.0044477253       -0.9003240986
 C          0.1151568979       -2.0434210349       -2.3953600230
 C          0.4398404401       -3.3005719781       -3.1432393035
 C         -0.7664926415       -2.4946986289       -3.5193310032
 H         -0.7501975838       -1.9339373619       -4.4415320163
 H         -1.7409203017       -2.8855585773       -3.2641307121
 H          1.2886542188       -3.2968017715       -3.8092140530
 H          0.2818833485       -4.2405169014       -2.6365869523
 H          0.7386592736       -1.1764106973       -2.5687178176
