  62
        -98.93659188
 C          1.1400160793        1.1005987566        0.2727038007
 C          1.6570642030       -0.0009558205        0.9992576313
 C          2.7565382709       -0.7459918928        0.3701790018
 C          3.1484825270       -0.4052276110       -0.8704609685
 C          4.2976363725       -1.0158413169       -1.6212159832
 C          5.6330842586       -0.4653088940       -1.0810515896
 C          6.5164739983       -1.5103779162       -0.3994059364
 H          6.9837373063       -2.1333752256       -1.1648975473
 H          7.3129531716       -0.9751963740        0.1218570318
 C          5.8084442113       -2.4391529707        0.5916752190
 H          5.2826145039       -3.2250670569        0.0471960775
 H          6.5872941300       -2.9332553700        1.1764041283
 C          4.8219080398       -1.7661776687        1.5545835801
 H          4.9233837750       -2.2426836758        2.5317083491
 H          5.0713232018       -0.7130973923        1.6867040024
 C          3.3416251299       -1.8921900647        1.1481162395
 H          2.7335400276       -1.9529619080        2.0558217763
 H          3.1908549170       -2.8225349878        0.5924118410
 H          6.1999290048       -0.0197009622       -1.8998568442
 H          5.4112982754        0.3401579251       -0.3777642193
 H          4.1738578527       -0.7535939048       -2.6722868253
 H          4.2616575793       -2.0992510845       -1.5279688501
 O          2.5743152015        0.6054637091       -1.5712428248
 C          1.5506557983        1.3752827216       -1.0321878283
 O          1.1120873955        2.2428309818       -1.8097275941
 O          1.2105100740       -0.3502521212        2.1255990343
 C          0.0033764719        1.8849296736        0.9019035063
 C         -1.1751252581        1.9427103133       -0.0383149839
 C         -1.9016898687        3.0931841571       -0.3143874219
 C         -2.9922281548        3.0414831629       -1.1662188781
 C         -3.3957941528        1.8491759098       -1.7384113707
 C         -2.6722378212        0.6921590875       -1.4704268008
 C         -1.5734830501        0.7515984454       -0.6310242396
 H         -0.9964193523       -0.1439901897       -0.4590195605
 N         -3.0377084840       -0.5420121269       -2.0265959131
 S         -2.7689644429       -1.9502747851       -1.1707606695
 O         -1.3752412791       -2.3178194365       -1.2231986697
 O         -3.6907092693       -2.9012390407       -1.7559435108
 C         -3.2682213712       -1.5797445135        0.5020928474
 C         -2.3412405514       -1.5363003069        1.5228677749
 C         -2.7648903015       -1.1990390091        2.7989747602
 C         -4.1010669832       -0.9150458273        3.0322971571
 C         -5.0233770003       -0.9737193148        1.9981477402
 C         -4.6050064005       -1.3063449453        0.7206626347
 H         -5.2935635647       -1.3712020142       -0.1059929482
 H         -6.0630965208       -0.7576460125        2.1833640524
 H         -4.4240097078       -0.6486033083        4.0262858671
 H         -2.0398903732       -1.1523906466        3.5961077197
 H         -1.3049645499       -1.7549842848        1.3156554761
 H         -3.9137924347       -0.5513770540       -2.5267050324
 H         -4.2493980018        1.8122526439       -2.3974626481
 H         -3.5417139266        3.9449994521       -1.3825409263
 H         -1.6046701586        4.0343134302        0.1178716245
 H         -0.3018444880        1.2629872436        1.7616501999
 C          0.3995550845        3.2383384198        1.4732519086
 C          1.8277546676        3.5592008171        1.7956530892
 C          1.1371891490        4.2657816831        0.6698021790
 H          0.8753280147        5.3052542688        0.8037658512
 H          1.4047094241        4.0070738941       -0.3422363776
 H          2.0390557590        4.1091322537        2.7005952129
 H          2.5752990074        2.8187430320        1.5490890785
 H         -0.3396321870        3.6129797477        2.1744759103
