  62
        -98.93437112
 C         -1.6984797498       -0.0269724991       -0.8972893695
 C         -2.9078465398        0.7037673707       -0.8191650989
 C         -4.1214069898       -0.0701899397       -0.4952596296
 C         -4.0309069497       -1.3909921899       -0.2693433808
 C         -5.1316107896       -2.3732226102        0.0449353684
 C         -6.2172229797       -1.9322092912        1.0358159887
 C         -5.7340398198       -0.9979974921        2.1547514696
 H         -6.0615683697       -1.3972051130        3.1165162092
 H         -4.6432507298       -0.9649672421        2.1703019596
 C         -6.2848121299        0.4241031679        2.0248540008
 H         -7.3419821799        0.3675449581        1.7560736008
 H         -6.2213401799        0.9157686271        2.9986426413
 C         -5.5599614399        1.3173839289        1.0191030416
 H         -4.5640069999        1.5658685786        1.3955496119
 H         -6.1151609300        2.2552611189        0.9404074424
 C         -5.3912562599        0.7251439801       -0.3896291889
 H         -6.2589557498        0.1363393903       -0.6765582394
 H         -5.2867947899        1.5562332408       -1.0923103382
 H         -7.0297707897       -1.4482865408        0.4956872292
 H         -6.6309168996       -2.8419302916        1.4744402779
 H         -5.6050509796       -2.6651253794       -0.8971261119
 H         -4.6190701196       -3.2565671905        0.4335413576
 O         -2.8418331097       -2.0541612197       -0.3348550313
 C         -1.6648365897       -1.4024621294       -0.6484089207
 O         -0.6636852296       -2.1460681793       -0.6792662514
 O         -3.0049004499        1.9445508709       -1.0139929578
 C         -0.3556235398        0.5953105113       -1.2410319290
 C          0.2946310501        1.2483757202       -0.0447355384
 C         -0.3275642500        2.2745713896        0.6579815025
 C          0.3103081400        2.8724415287        1.7291851831
 C          1.5849364300        2.4814852984        2.1009812227
 C          2.2172152901        1.4611237491        1.4013105618
 C          1.5611366601        0.8412770400        0.3474307113
 H          2.0487787402        0.0341617905       -0.1776246794
 N          3.5093197001        1.0388612889        1.7457235915
 S          4.6073428501        0.6693124200        0.5357262211
 O          5.9025740101        0.8569175696        1.1537445713
 O          4.3552500101        1.4362296011       -0.6613112082
 C          4.3664493503       -1.0660190997        0.2243128796
 C          4.1167521403       -1.5036096486       -1.0608937708
 C          3.9524910204       -2.8607198984       -1.2879319820
 C          4.0428260805       -3.7520274693       -0.2303549828
 C          4.2984501804       -3.2971142604        1.0544669676
 C          4.4632504703       -1.9415409006        1.2874638088
 H          4.6671097403       -1.5505736015        2.2703334092
 H          4.3676031905       -3.9949330712        1.8733898270
 H          3.9117638905       -4.8074192392       -0.4100557237
 H          3.7507983104       -3.2158497175       -2.2859177023
 H          4.0508265903       -0.7760416579       -1.8550871301
 H          3.9405788101        1.5597904883        2.4954754019
 H          2.0881337100        2.9624339077        2.9263057832
 H         -0.1838741201        3.6640907282        2.2722177638
 H         -1.3119460200        2.5970074498        0.3555523528
 H          0.2872306902       -0.2425981584       -1.5439213997
 C         -0.4179629999        1.5853153023       -2.3902370481
 C          0.8620800501        1.9997425929       -3.0495382877
 C         -0.1080365398        1.1208293835       -3.7795311985
 H         -0.6679464599        1.5424935542       -4.6008583081
 H          0.1473548002        0.0796411637       -3.9140706494
 H          0.9656664300        3.0257003832       -3.3687685168
 H          1.7815323801        1.5664912927       -2.6826658281
 H         -1.1885868600        2.3349856921       -2.2703600974
