  62
        -98.93618694
 C          1.7681905468       -0.4595018838       -0.2846275047
 C          2.8904472181       -0.5464041638       -1.1408370303
 C          4.2032102188       -0.6198210559       -0.4825769148
 C          4.2620315108       -0.6132739462        0.8618946033
 C          5.5240548690       -0.5971891246        1.6770535143
 C          6.1290467632        0.8213785638        1.6819564794
 C          7.4843708801        0.9323543307        0.9830736458
 H          7.7027061120        1.9954022039        0.8603489018
 H          8.2544239738        0.5111209961        1.6327832874
 C          7.5924363873        0.2409638338       -0.3794940757
 H          8.4958475687        0.6236449290       -0.8592134250
 H          7.7461321716       -0.8297125891       -0.2369914000
 C          6.4065114691        0.4438080652       -1.3313186384
 H          5.8718711279        1.3628189501       -1.0896682240
 H          6.7995954116        0.5624750670       -2.3431788799
 C          5.4100667833       -0.7300051564       -1.3729295750
 H          5.0032281870       -0.8060758338       -2.3857524737
 H          5.9373462217       -1.6640534438       -1.1602069040
 H          5.4165919458        1.4989635127        1.2065821285
 H          6.2468687457        1.1632889670        2.7113047448
 H          5.2601816381       -0.9008139772        2.6901821453
 H          6.2336403549       -1.3146838116        1.2711254958
 O          3.1588172882       -0.5402172794        1.6511193900
 C          1.8861102084       -0.4582605468        1.1050577894
 O          0.9687223395       -0.3922523578        1.9436677084
 O          2.7983538939       -0.5572790032       -2.3988767190
 C          0.3827453609       -0.3721897273       -0.8956888738
 C         -0.3268778321        0.8837187422       -0.4530758466
 C          0.3824685829        2.0799089358       -0.3786938159
 C         -0.2377590374        3.2473498575        0.0199521670
 C         -1.5863257730        3.2541121254        0.3302432194
 C         -2.3091313739        2.0719162239        0.2406213250
 C         -1.6781676127        0.8959290452       -0.1432291696
 H         -2.2580726211       -0.0098262664       -0.2044663974
 N         -3.6766890885        2.0423331725        0.5506807897
 S         -4.7264905280        1.1544471288       -0.4024376393
 O         -4.2910710565        1.1114853515       -1.7786749190
 O         -6.0247921789        1.7511211970       -0.1676896100
 C         -4.7193027247       -0.4820361270        0.2981405525
 C         -4.6377368183       -0.6288443540        1.6686514361
 C         -4.6832139975       -1.9045419806        2.2078951257
 C         -4.8187465271       -3.0048791531        1.3748742323
 C         -4.9054990634       -2.8401194462        0.0012487666
 C         -4.8554156148       -1.5669419406       -0.5450768693
 H         -4.9070337678       -1.3942917070       -1.6083151262
 H         -5.0104396597       -3.6966523103       -0.6458342454
 H         -4.8551583601       -3.9963033533        1.7982662547
 H         -4.6121599642       -2.0366595783        3.2755716189
 H         -4.5298613801        0.2462703788        2.2874169941
 H         -4.0733945800        2.9339795087        0.8094578950
 H         -2.0741032703        4.1662627162        0.6391650297
 H          0.3303651353        4.1634704055        0.0825317981
 H          1.4340112481        2.0806258861       -0.6320256020
 H          0.5452222613       -0.3024691150       -1.9823768084
 C         -0.3956587364       -1.6384707731       -0.6029271656
 C         -1.4157504167       -2.1479498324       -1.5753742778
 C         -0.1096448389       -2.8644854050       -1.4156039163
 H         -0.1036257770       -3.8228799551       -0.9189485363
 H          0.6252872725       -2.7751612854       -2.2023377087
 H         -2.3067560369       -2.6154968135       -1.1842701618
 H         -1.5785781896       -1.5755628871       -2.4765270850
 H         -0.5862415574       -1.7713603890        0.4563229281
