  62
        -98.94187397
 C         -2.7694885789       -0.2616954757       -0.2481173339
 C         -2.0267401134        0.5595921838       -1.1310051461
 C         -2.0123471271        1.9960608814       -0.8185008641
 C         -2.7047880579        2.4558603308        0.2377583213
 C         -2.7406458787        3.8863198347        0.6895340817
 C         -1.6565461192        4.1738282994        1.7371228321
 C         -0.2610232692        3.6870566678        1.3446733826
 H          0.4240231651        3.9959778789        2.1378490739
 H         -0.2437586392        2.5939565066        1.3259609189
 C          0.2473870428        4.2185214550       -0.0024432893
 H         -0.3203657798        5.1037813394       -0.2929053904
 H          1.2892416936        4.5227339459        0.1175533127
 C          0.2100787590        3.1901600290       -1.1346434112
 H          0.6542781314        2.2558618740       -0.7793019247
 H          0.8250928884        3.5649834235       -1.9577042923
 C         -1.1813488897        2.8812819420       -1.7036031863
 H         -1.7058641761        3.8130440198       -1.9247966973
 H         -1.0478552700        2.3307481640       -2.6393330570
 H         -1.6289360530        5.2507298189        1.9150001299
 H         -1.9375100005        3.6820122106        2.6713972066
 H         -2.6078702142        4.5364261715       -0.1730617342
 H         -3.7192213404        4.0802879646        1.1324513933
 O         -3.4381253855        1.6458612194        1.0433059833
 C         -3.4596838191        0.2779465330        0.8425291948
 O         -4.1371446752       -0.3486164272        1.6826738373
 H         -0.2744094251       -1.4108251437       -1.1620280731
 C         -0.3243551718       -2.0204930773       -0.2721047687
 C         -1.5629613832       -2.3452008461        0.2622546170
 C         -1.6017045791       -3.1184278977        1.4163241349
 C         -0.4306096508       -3.5359220600        2.0264538904
 C          0.8021846290       -3.1725290154        1.5127981961
 C          0.8468438986       -2.4055541527        0.3576045675
 N          2.1017012410       -1.9491224539       -0.1345663353
 S          2.6069442891       -0.6183956541        0.7929044704
 O          2.9360254928       -1.1021573727        2.1101500911
 O          1.6202570920        0.4380237311        0.7325148647
 C          4.0915978681       -0.1311136110       -0.0646155146
 C          4.0362497699        0.9014195509       -0.9806518563
 C          5.1883361227        1.2488972903       -1.6687224060
 C          6.3672665735        0.5580367255       -1.4331193005
 C          6.4063068646       -0.4772031382       -0.5106589208
 C          5.2586847941       -0.8284620918        0.1817165671
 H          5.2414967920       -1.6190899549        0.9131853237
 H          7.3256843060       -1.0102752429       -0.3294600541
 H          7.2616698056        0.8300350233       -1.9710137380
 H          5.1600569636        2.0548053794       -2.3843875360
 H          3.0994884578        1.4156701983       -1.1282273944
 H          1.9950111989       -1.6168040596       -1.0869151428
 H          1.7210552238       -3.4461876393        2.0048621638
 H         -0.4788492870       -4.1323676876        2.9250656015
 H         -2.5586900987       -3.3659002205        1.8530108209
 C         -2.8209097203       -1.7810953359       -0.3545568940
 H         -3.6712156351       -2.0963953812        0.2647131350
 C         -3.0385759850       -2.2900921237       -1.7650231560
 C         -3.5824163108       -3.6724693049       -1.9590073512
 C         -4.4372958944       -2.4803820946       -2.2658722411
 H         -4.6498080390       -2.2464088298       -3.2980987748
 H         -5.2461249242       -2.2440364700       -1.5895702669
 H         -3.2074037022       -4.2618159231       -2.7814564602
 H         -3.8140157409       -4.2471316936       -1.0749539959
 H         -2.3034038324       -1.9318904414       -2.4727997823
 O         -1.3968439353        0.1423105506       -2.1412767304
