  62
        -98.94591868
 C         -1.2912234464       -1.4222467080        0.6137883342
 C         -2.3643291680       -1.3107897502       -0.3048560683
 C         -3.3667815709       -0.2768988115        0.0003333086
 C         -3.2206936756        0.4900112079        1.0949418571
 C         -4.1465728409        1.6010345941        1.4974258143
 C         -3.7132946020        2.9493813330        0.9044264948
 C         -3.4018014141        2.8976908247       -0.5911055767
 H         -3.1329073018        3.9097945826       -0.9006848036
 H         -2.5277744117        2.2634692275       -0.7548039707
 C         -4.5601047559        2.3923929208       -1.4621668700
 H         -4.6519026335        3.0423926390       -2.3347832482
 H         -5.4978350322        2.4594701907       -0.9091959973
 C         -4.3822955129        0.9663512191       -1.9859439648
 H         -5.1366209524        0.7914837686       -2.7576890052
 H         -3.4017169332        0.8677459358       -2.4580996016
 C         -4.5296934808       -0.1487374262       -0.9432534486
 H         -5.4610182802       -0.0139118310       -0.3892443729
 H         -4.5846423571       -1.1000623633       -1.4802717932
 H         -2.8201019932        3.2916305008        1.4323800875
 H         -4.5083622155        3.6746673628        1.0870897480
 H         -5.1551207815        1.3576505585        1.1680840642
 H         -4.1398576852        1.6740590297        2.5865190348
 O         -2.1768227085        0.3558711847        1.9535797396
 C         -1.1975738383       -0.5990563425        1.7390472616
 O         -0.3075013461       -0.6182957171        2.6141131867
 H          2.2171673179       -1.2600113925        0.8407698364
 C          1.9875305198       -1.3542568929       -0.2101106804
 C          0.8003939358       -1.9536959081       -0.6091357328
 C          0.5331210961       -2.0678550180       -1.9694900989
 C          1.4390430521       -1.5948312881       -2.9010617561
 C          2.6168535960       -0.9892692030       -2.4999298100
 C          2.8908825533       -0.8645103393       -1.1432334080
 N          4.0805429746       -0.2586790038       -0.7056309538
 S          4.0364642893        0.8187926434        0.5739665375
 O          5.2603743420        1.5793663519        0.4393899035
 O          3.8685492201        0.1087674123        1.8151424337
 C          2.6354376671        1.8668901352        0.2324398639
 C          1.4452720384        1.6858070934        0.9050784896
 C          0.3620824317        2.4832908284        0.5694690781
 C          0.4833643867        3.4396608890       -0.4253966170
 C          1.6895009920        3.6130550796       -1.0881190994
 C          2.7750759317        2.8187400933       -0.7599972485
 H          3.7327424481        2.9316621800       -1.2419209363
 H          1.7832720651        4.3618515853       -1.8579544305
 H         -0.3659926925        4.0533541246       -0.6812521165
 H         -0.5706192950        2.3403511625        1.0924524404
 H          1.3668237081        0.9354420517        1.6765034233
 H          4.6669343938        0.0897602849       -1.4504499823
 H          3.3212948430       -0.6182673479       -3.2286808184
 H          1.2218718288       -1.6919315996       -3.9539310360
 H         -0.3983383864       -2.5065785892       -2.2890160218
 C         -0.1688748941       -2.4361292391        0.4440759144
 H          0.3664472027       -2.4472742962        1.4034671268
 C         -0.6744861035       -3.8376919201        0.1658244915
 C          0.2482942862       -4.9958962762        0.3910303306
 C         -0.9103727500       -4.7694261787        1.3143640924
 H         -1.7507681119       -5.4455812741        1.2653110000
 H         -0.7057397920       -4.4004275709        2.3093634679
 H          0.2058948154       -5.8300681633       -0.2922265793
 H          1.2398263585       -4.7793832105        0.7604212209
 H         -1.3644946043       -3.8954648343       -0.6649556392
 O         -2.5053480524       -2.0317137579       -1.3260272442
