  62
        -98.94110607
 C          2.0191605863        1.2258187071        0.1037425639
 C          2.8143027101        0.6770145287        1.1417604567
 C          3.9909169496       -0.0957367312        0.7231032467
 C          4.2301446502       -0.2659589044       -0.5897371525
 C          5.3597135447       -1.0740103516       -1.1583260436
 C          4.9377438005       -2.5314915865       -1.3909522015
 C          4.2485797523       -3.1745343674       -0.1873310655
 H          3.2925652653       -2.6741570513       -0.0152047103
 H          4.0238387834       -4.2092308176       -0.4555642153
 C          5.0748713190       -3.1488679624        1.1063315583
 H          5.0156383832       -4.1317409360        1.5786634332
 H          6.1239384421       -2.9654779754        0.8716209269
 C          4.6015697491       -2.1276169169        2.1424534272
 H          5.1078290995       -2.3428829260        3.0871850452
 H          3.5286415134       -2.2489484547        2.3123542561
 C          4.8730029513       -0.6564573155        1.8031451042
 H          4.6627810578       -0.0658802117        2.6997081482
 H          5.9261962575       -0.5271403755        1.5456766894
 H          5.8245648276       -3.1098978974       -1.6561836541
 H          4.2468269183       -2.5614388127       -2.2368245928
 H          6.2073328951       -1.0343147220       -0.4768304960
 H          5.6513579973       -0.6333257095       -2.1131522309
 O          3.4273580233        0.2422941270       -1.5571785059
 C          2.2951465008        0.9868702287       -1.2438846724
 O          1.6480089488        1.3574959162       -2.2393504501
 O          2.5468450994        0.8215099281        2.3650251538
 C          0.7920020285        2.0240487509        0.5077669592
 C         -0.4139004078        1.5377763642       -0.2560392681
 C         -1.1786625031        2.3421892467       -1.0891658275
 C         -2.2614009195        1.8140365116       -1.7715687041
 C         -2.6086553404        0.4833537308       -1.6346664336
 C         -1.8574233944       -0.3279215448       -0.7928549950
 C         -0.7785345912        0.2046928603       -0.1050179864
 H         -0.1889947750       -0.4308660148        0.5449612029
 N         -2.2044065636       -1.6798758350       -0.6388099487
 S         -3.8200815782       -2.0801061495       -0.4826666538
 O         -3.8282317511       -3.3229095685        0.2570638347
 O         -4.4426963112       -2.1187022987       -1.7823943139
 C         -4.5378644559       -0.7686573399        0.4911772532
 C         -4.0322281212       -0.5474242547        1.7570372161
 C         -4.5565089725        0.4849760535        2.5173015551
 C         -5.5730170593        1.2746379919        2.0014281767
 C         -6.0736845102        1.0363195358        0.7311950562
 C         -5.5512178513        0.0062409918       -0.0346634778
 H         -5.9089468288       -0.2121540531       -1.0276490076
 H         -6.8654618792        1.6503772773        0.3335517393
 H         -5.9768174434        2.0794448270        2.5950805387
 H         -4.1684046657        0.6711569316        3.5058942175
 H         -3.2458590585       -1.1830847076        2.1318691345
 H         -1.6314904007       -2.1837817912        0.0209336477
 H         -3.4338045352        0.0540185588       -2.1792932446
 H         -2.8385716685        2.4472037234       -2.4278618641
 H         -0.9102765267        3.3760682898       -1.2285778262
 H          0.6428827130        1.7674636300        1.5702969668
 C          0.9767383192        3.5328757908        0.4557975291
 C          2.3291037845        4.1506468110        0.6448844759
 C          1.6506105675        4.2266760104       -0.6883595749
 H          1.2600452110        5.1816236232       -1.0087105590
 H          2.0243365473        3.6162403336       -1.4949686079
 H          2.4049034411        5.0495170445        1.2381900987
 H          3.1736927519        3.4851881774        0.7512080645
 H          0.1446764437        4.0557061471        0.9172665388
