  62
        -98.94284725
 C         -2.0893114133       -1.5129692829        0.1156039144
 C         -1.7089875425       -0.3746291240       -0.6394705652
 C         -2.7534581752        0.6486329703       -0.8206882135
 C         -3.9748619113        0.4559578998       -0.2932070622
 C         -5.1083946633        1.4368303196       -0.3635166133
 C         -5.1036785794        2.3766235545        0.8503898031
 C         -3.7412057572        3.0077742126        1.1375750514
 H         -3.8666964064        3.6746211450        1.9933780146
 H         -3.0417338177        2.2251160742        1.4404857982
 C         -3.1449714543        3.7917678422       -0.0395656087
 H         -2.7505811081        4.7382435150        0.3357928205
 H         -3.9287267314        4.0312753583       -0.7592809964
 C         -1.9947456916        3.0826301675       -0.7568959073
 H         -1.2512529089        2.7567638010       -0.0253279166
 H         -1.5144200038        3.8079965529       -1.4188915715
 C         -2.3867516089        1.8719645995       -1.6130241784
 H         -3.1951018653        2.1465934507       -2.2939443286
 H         -1.5154986926        1.5885146744       -2.2106684978
 H         -5.4097344021        1.8063332714        1.7306369509
 H         -5.8428967890        3.1618945168        0.6815286284
 H         -6.0460811846        0.8783656279       -0.3757474814
 H         -5.0290179523        2.0130223301       -1.2833090522
 O         -4.3039741690       -0.6511788665        0.4202237787
 C         -3.3696273064       -1.6436519875        0.6620835970
 O         -3.7935065942       -2.5806154537        1.3681838669
 O         -0.5719011310       -0.2055802763       -1.1477839863
 C         -1.1147707428       -2.6366362202        0.4307873436
 C          0.1943151178       -2.0547525217        0.9010524227
 C          0.2586944368       -1.4683685138        2.1616275068
 C          1.4319682656       -0.8960824341        2.6158111455
 C          2.5628844872       -0.8870015238        1.8182903360
 C          2.5018337000       -1.4521499170        0.5515289400
 C          1.3268532732       -2.0418000940        0.1039068977
 H          1.2879687195       -2.4616078525       -0.8888870425
 N          3.6351396439       -1.4282619287       -0.2769607336
 S          4.5867010394       -0.0543886383       -0.3020852757
 O          5.2448279192       -0.0806078875       -1.5900119776
 O          5.4620386757       -0.0566000559        0.8451881939
 C          3.4730571164        1.3357664252       -0.2051928230
 C          3.5957243269        2.2379234473        0.8321018496
 C          2.7270423997        3.3155742564        0.8894166672
 C          1.7568346576        3.4718457222       -0.0882409728
 C          1.6499968287        2.5589811990       -1.1258707730
 C          2.5132917879        1.4782970263       -1.1868008969
 H          2.4426546181        0.7520947612       -1.9799140445
 H          0.8912328670        2.6743620891       -1.8822778458
 H          1.0788958096        4.3098167180       -0.0425183256
 H          2.8080430118        4.0277909706        1.6948962159
 H          4.3659127485        2.0794511255        1.5696920864
 H          3.4646467035       -1.7709325764       -1.2108828098
 H          3.4883414256       -0.4527728514        2.1596812772
 H          1.4684288129       -0.4507999252        3.5984994444
 H         -0.6287758391       -1.4627291714        2.7801590251
 H         -1.5686764710       -3.1754090586        1.2781523317
 C         -0.9470122686       -3.6559853304       -0.6864970607
 C         -2.1210033506       -4.0694717347       -1.5214847920
 C         -0.9998294455       -3.2911653382       -2.1384608859
 H         -0.3359167927       -3.8056496669       -2.8184896170
 H         -1.1699428269       -2.2573349396       -2.3934968669
 H         -2.2289797389       -5.1126508322       -1.7776698828
 H         -3.0595566855       -3.5644858794       -1.3443546316
 H         -0.2538273747       -4.4445192187       -0.4081336395
