  62
        -98.94625946
 C         -2.3923704822       -0.5070809516       -0.0116596326
 C         -1.4000667444       -0.7140236264        0.9739745551
 C         -0.7245980442       -2.0170649441        0.9518229039
 C         -1.0740106752       -2.9191675403        0.0171172358
 C         -0.3836840490       -4.2313661001       -0.2221396428
 C          0.9245912059       -3.9858599329       -1.0027590000
 C          2.1973339043       -4.3320969557       -0.2290619421
 H          2.3129278369       -5.4181703139       -0.2010026802
 H          3.0375243749       -3.9225993211       -0.7945544305
 C          2.2649846104       -3.8126785757        1.2104464868
 H          1.6929518143       -4.4728375023        1.8646125528
 H          3.3077446017       -3.8855068194        1.5264465559
 C          1.7850088372       -2.3708811331        1.4219952174
 H          1.8562106695       -1.8028664188        0.4932821940
 H          2.4508397289       -1.8892930274        2.1417026012
 C          0.3513379162       -2.2526261606        1.9748278276
 H          0.1093463068       -3.1403100224        2.5657264727
 H          0.3031123344       -1.3867423782        2.6412512804
 H          0.9144084829       -4.5714996058       -1.9239790703
 H          0.9566028526       -2.9349491149       -1.3018383883
 H         -0.1789077383       -4.7224104972        0.7266938474
 H         -1.0608645846       -4.8579963938       -0.8032800096
 O         -2.0587047381       -2.6990042590       -0.8927378265
 C         -2.7181650167       -1.4819844633       -0.9512442284
 O         -3.5633602934       -1.3938069732       -1.8669572288
 H         -0.8641515877        0.6718152191       -1.6383665819
 C         -0.8980477439        1.6160372532       -1.1143264513
 C         -1.9749686005        1.9059413824       -0.2858014880
 C         -2.0001961562        3.1364600928        0.3582862134
 C         -0.9557486236        4.0318012746        0.2003455224
 C          0.1427261475        3.7118289817       -0.5766890125
 C          0.1707846562        2.4880554371       -1.2356389530
 N          1.2717029104        2.0991889706       -2.0269888668
 S          2.1140160533        0.7227880357       -1.5716934989
 O          3.1913115519        0.6128203730       -2.5323521660
 O          1.2200486798       -0.4031388810       -1.4905628675
 C          2.7994529651        1.1201167958        0.0272917328
 C          4.1388057570        1.4526115085        0.1023439826
 C          4.6748789294        1.8143252619        1.3271979831
 C          3.8631117453        1.8468556578        2.4512930833
 C          2.5205358856        1.5159769899        2.3571364849
 C          1.9767413449        1.1487647918        1.1353410939
 H          0.9354821500        0.8803669773        1.0502529026
 H          1.8807801521        1.5380394913        3.2249032665
 H          4.2778124802        2.1304735044        3.4057875905
 H          5.7196145886        2.0701541050        1.4007960380
 H          4.7297342365        1.4103142623       -0.7983632308
 H          1.9336004347        2.8444128327       -2.1965665119
 H          0.9712116687        4.3972938169       -0.6736203673
 H         -0.9879514218        4.9834401016        0.7084527065
 H         -2.8340615869        3.3909604334        0.9919313133
 C         -3.0505059170        0.8562459352       -0.1298018791
 H         -3.6495711164        0.8299129570       -1.0521265514
 C         -3.9707821227        1.1090886133        1.0464852842
 C         -5.1928565960        1.9609687101        0.8835339832
 C         -5.3293726942        0.4778080767        1.0471642076
 H         -5.7190749928        0.0923269381        1.9772397913
 H         -5.5990713326       -0.1128259334        0.1833860296
 H         -5.4939565200        2.5938735841        1.7046759432
 H         -5.3845185149        2.3805689142       -0.0925420702
 H         -3.4370384393        1.1494936334        1.9889308381
 O         -1.0817511622        0.1603777531        1.8240528126
