  62
        -98.93969357
 C         -2.1150162886       -0.3937327379        0.2681150069
 C         -2.8115322031        0.8271709129        0.0743230270
 C         -4.1661110106        0.7289488366       -0.4829470819
 C         -4.6598708107       -0.4837896032       -0.7916152564
 C         -6.0420803960       -0.7405426497       -1.3166786891
 C         -7.0328117704       -0.9964324335       -0.1724053842
 C         -6.9685872902        0.0451343815        0.9446584693
 H         -7.7310200486       -0.2192221299        1.6806159477
 H         -6.0002284384       -0.0276145943        1.4451260814
 C         -7.1882957532        1.4909132100        0.4778589489
 H         -7.6596675743        1.4956068525       -0.5055945942
 H         -7.8763336704        1.9817646370        1.1694007944
 C         -5.9182483857        2.3427540177        0.4341284307
 H         -5.3920993354        2.2667527115        1.3892191906
 H         -6.2135559282        3.3876988221        0.3066524597
 C         -4.9282684041        2.0076310329       -0.6886482641
 H         -5.4505655275        1.9945713064       -1.6475914326
 H         -4.1767675177        2.8022163464       -0.7172924590
 H         -8.0414113759       -1.0240765139       -0.5887019818
 H         -6.8164962859       -1.9758550160        0.2603292526
 H         -6.3648745461        0.1152470846       -1.9064119617
 H         -6.0077302075       -1.6218130318       -1.9593047639
 O         -3.9589827590       -1.6299421721       -0.6141044910
 C         -2.6729808337       -1.6239363235       -0.0835976468
 O         -2.1692695473       -2.7573641599        0.0093479070
 H          1.3191581986        1.4888078373        0.7408299019
 C          1.3066037555        0.8194530056       -0.1057424958
 C          0.3241960413       -0.1537022429       -0.2148488923
 C          0.3344379725       -0.9936134405       -1.3249172679
 C          1.3012648697       -0.8529749354       -2.3031797647
 C          2.2886281884        0.1100959864       -2.1833494226
 C          2.2921551382        0.9477987348       -1.0755008730
 N          3.2932161824        1.9268159951       -0.9045745650
 S          4.3218815140        1.7314465969        0.4039452410
 O          3.5587789988        1.7394181205        1.6240202096
 O          5.3288177462        2.7573459844        0.2580573921
 C          5.0514286238        0.1243740445        0.1406967583
 C          6.2633044993        0.0365991734       -0.5162927358
 C          6.7904054062       -1.2162328896       -0.7855548948
 C          6.0945842485       -2.3540300546       -0.4052988518
 C          4.8773448726       -2.2491129626        0.2502791739
 C          4.3474197091       -0.9987970832        0.5268979124
 H          3.4068205609       -0.8812384879        1.0391039097
 H          4.3344456763       -3.1324294152        0.5465755728
 H          6.5029098345       -3.3291196480       -0.6191968394
 H          7.7382374311       -1.3016984213       -1.2921671515
 H          6.7710335482        0.9474954556       -0.7898863765
 H          3.8422648852        2.0929308492       -1.7369942126
 H          3.0472699032        0.2160371830       -2.9442131346
 H          1.2926027001       -1.5068585890       -3.1618409132
 H         -0.4204021150       -1.7609336833       -1.4067792568
 C         -0.7225754926       -0.2897139420        0.8623938715
 H         -0.7280840162        0.6565471278        1.4271609992
 C         -0.3973977246       -1.4055885454        1.8475285167
 C          0.6859459923       -2.4116694906        1.6136423279
 C          0.8713420743       -1.3422053045        2.6458442007
 H          0.8388719096       -1.6180497785        3.6892018973
 H          1.5538106792       -0.5311344851        2.4326835185
 H          0.5057337265       -3.4234745604        1.9427897251
 H          1.2499997664       -2.3472658255        0.6962180153
 H         -1.2806117501       -1.7620897567        2.3665919943
 O         -2.3189731467        1.9516079509        0.3630508871
