  62
        -98.94533714
 C         -2.1335255469       -0.8872360827        0.0476252394
 C         -2.8527828593       -0.2353200537        1.0769405959
 C         -3.5730688823        0.9806851838        0.6832483844
 C         -3.4746522804        1.4345090791       -0.5797176359
 C         -4.1244402559        2.6768321048       -1.1263613130
 C         -5.5795016674        2.4765642685       -1.5723221451
 C         -6.5911169736        2.3126820011       -0.4372866065
 H         -6.4758698199        3.1334078298        0.2713633226
 H         -7.5852600377        2.4013450215       -0.8796577240
 C         -6.4986354693        0.9718862423        0.3044012648
 H         -5.9312204231        0.2601918804       -0.2996605461
 H         -7.5006623994        0.5563400569        0.4317651792
 C         -5.8646358058        1.0577753790        1.6927334548
 H         -5.8155023388        0.0487677104        2.1098263424
 H         -6.4957759509        1.6626188277        2.3474649990
 C         -4.4468994296        1.6445087067        1.7045708777
 H         -4.4827925776        2.7203718366        1.5338776639
 H         -4.0072449088        1.4604361225        2.6880640662
 H         -5.8626378298        3.3530760402       -2.1596254342
 H         -5.6254555249        1.6062866546       -2.2310072476
 H         -4.0762208252        3.4734536213       -0.3831465808
 H         -3.5350063755        2.9774086694       -1.9954760186
 O         -2.7302944126        0.8061328938       -1.5287122861
 C         -2.0575653414       -0.3753608674       -1.2480942553
 O         -1.4400163651       -0.8559537449       -2.2165996957
 O         -2.8830525705       -0.6442800026        2.2694153224
 C         -1.3809240237       -2.1657039734        0.3712424735
 C          0.0937073321       -1.9645304505        0.1226641911
 C          0.8704829999       -2.8208671138       -0.6453677434
 C          2.2132496100       -2.5529399263       -0.8509124995
 C          2.8106876297       -1.4389872406       -0.2913074182
 C          2.0444263242       -0.5793072511        0.4854188425
 C          0.7011418386       -0.8500719044        0.6894515562
 H          0.1032214894       -0.1749985295        1.2904646811
 N          2.6461707345        0.5505337474        1.0717892297
 S          3.4779147793        1.5994246443        0.0542624024
 O          3.4519439584        2.8785685360        0.7311244075
 O          2.9474475740        1.5723209809       -1.2893391576
 C          5.1435885110        0.9700914760        0.0714721013
 C          5.7679020718        0.6421969028       -1.1159816980
 C          7.0671708824        0.1598357302       -1.0786191907
 C          7.7151447651        0.0158768913        0.1386338370
 C          7.0747526857        0.3524868622        1.3221268557
 C          5.7765913772        0.8361797952        1.2918598853
 H          5.2443142815        1.1125177250        2.1866078427
 H          7.5819706547        0.2391853753        2.2666547044
 H          8.7253870012       -0.3609338562        0.1649698929
 H          7.5663754503       -0.1017840859       -1.9977742795
 H          5.2210694305        0.7648906174       -2.0374571186
 H          2.0183150686        1.0725784516        1.6667994648
 H          3.8542714028       -1.2249093268       -0.4543701632
 H          2.8029588023       -3.2224082379       -1.4582776739
 H          0.4229731376       -3.6917446881       -1.0948809546
 H         -1.5268702994       -2.3242688494        1.4502758550
 C         -1.9748801300       -3.3389465115       -0.3784073681
 C         -1.8608607833       -4.7249620975        0.1802467887
 C         -3.1834304073       -4.0209218386        0.1869188787
 H         -3.9522544114       -4.3554022986       -0.4933560321
 H         -3.5647994565       -3.6533856453        1.1285300092
 H         -1.7233611868       -5.5473175829       -0.5052994709
 H         -1.3453171113       -4.8428595851        1.1211635122
 H         -1.9297595542       -3.2113922962       -1.4541721821
