  62
        -98.94307401
 C          1.8957688997        1.1187207392        0.3478122712
 C          2.4648425294        0.1021248288        1.1585878508
 C          3.8827576295       -0.2014690512        0.9285862110
 C          4.5586464197        0.4935970393       -0.0040621385
 C          5.9907448498        0.2555274894       -0.3839611583
 C          6.0985819400       -0.7517399900       -1.5372106188
 C          5.2861010999       -2.0284421201       -1.3201541896
 H          4.2220852999       -1.7799299000       -1.3215086398
 H          5.4645947101       -2.6778147197       -2.1799788199
 C          5.6262725495       -2.7859125408       -0.0289698199
 H          5.7096531095       -3.8502934107       -0.2586969605
 H          6.5959842895       -2.4591430510        0.3482779205
 C          4.5807160293       -2.6512585913        1.0799124199
 H          4.8072777291       -3.3908977717        1.8527121395
 H          3.5904169594       -2.8887904310        0.6821180895
 C          4.5079430492       -1.2812296317        1.7660565906
 H          3.8684093490       -1.3853239021        2.6476458204
 H          5.5045108991       -0.9828370219        2.0983050510
 H          7.1507142000       -1.0072879800       -1.6751049087
 H          5.7421785603       -0.2711658895       -2.4511665986
 H          6.5354224396       -0.1100866111        0.4843337317
 H          6.4246994099        1.2052205795       -0.7010753277
 O          3.9892879900        1.4739462897       -0.7459149181
 C          2.6489729499        1.8077949797       -0.6037062683
 O          2.2836476902        2.7205925901       -1.3679315479
 O          1.8159488092       -0.5183628016        2.0442226103
 C          0.4225720597        1.4280218792        0.5648751910
 C         -0.4109899501        0.7885360298       -0.5201228995
 C         -0.4619002798        1.3065902305       -1.8108085293
 C         -1.2117430296        0.6783869410       -2.7877404398
 C         -1.9393988297       -0.4623089991       -2.4966360705
 C         -1.8939927601       -0.9899377097       -1.2123313008
 C         -1.1293220603       -0.3652803603       -0.2361501003
 H         -1.0864354405       -0.8005025908        0.7514693595
 N         -2.6223964202       -2.1491553599       -0.8858343916
 S         -3.6314338805       -2.1025108205        0.4500247782
 O         -2.8556290808       -2.1019742612        1.6628618584
 O         -4.5344929205       -3.2170799304        0.2659855274
 C         -4.5123731904       -0.5627265904        0.2700212088
 C         -5.5941734802       -0.5219888498       -0.5880305914
 C         -6.2380693601        0.6863121903       -0.7981962909
 C         -5.7836323802        1.8299619299       -0.1589744602
 C         -4.6967824304        1.7726807794        0.6994760200
 C         -4.0523621705        0.5653187793        0.9181603895
 H         -3.2076134106        0.4764505489        1.5817944497
 H         -4.3443814304        2.6626437592        1.1960518905
 H         -6.2804193201        2.7722394001       -0.3277381899
 H         -7.0872998699        0.7341148207       -1.4605626111
 H         -5.9191432001       -1.4358865296       -1.0585155820
 H         -3.1088572101       -2.5579223194       -1.6714123919
 H         -2.5287424296       -0.9484623486       -3.2593763209
 H         -1.2354632993        1.0859397416       -3.7869258796
 H          0.1170207603        2.1844800406       -2.0491076587
 H          0.1684303794        0.9330184687        1.5124302407
 C          0.1390594597        2.9094995691        0.7083569317
 C         -1.0897712504        3.3466795988        1.4451481017
 C          0.2628510094        3.5462786884        2.0587210421
 H          0.6627774195        4.5471804084        2.1206904027
 H          0.5471562492        2.9120506780        2.8862191718
 H         -1.6242595203        4.2125254091        1.0864815220
 H         -1.7200511906        2.5758538787        1.8621146311
 H          0.4552986899        3.4978434996       -0.1423312079
