  62
        -98.93863232
 C          0.9159210447        1.3601344019        0.4886804046
 C          1.5150078520        0.2355250046        1.1024127281
 C          2.3765225421       -0.6183772937        0.2617895793
 C          2.4958821525       -0.3234082814       -1.0458057367
 C          3.3164328532       -1.0296992247       -2.0933020589
 C          4.8186513559       -0.7267523705       -1.9824255223
 C          5.3824227820       -0.7917288774       -0.5656478501
 H          6.4260850195       -0.4696747839       -0.6096179009
 H          4.8488183266       -0.0774626082        0.0637312008
 C          5.3451480152       -2.1720788174        0.0859313496
 H          5.8890663239       -2.8799802400       -0.5431370700
 H          5.8782537877       -2.0949258689        1.0368710899
 C          3.9525629248       -2.7405153314        0.3701837952
 H          3.5015078278       -3.1519001734       -0.5292855578
 H          4.0786976207       -3.5767296991        1.0640100235
 C          2.9922954421       -1.7601581759        1.0354880516
 H          2.1462521869       -2.3241332822        1.4445476093
 H          3.4832113005       -1.3094619885        1.9058571893
 H          4.9882800877        0.2829098598       -2.3646988557
 H          5.3578034145       -1.4251057914       -2.6249304962
 H          3.1323249594       -2.0995375164       -2.0527580556
 H          2.9564810332       -0.6718978264       -3.0609226669
 O          1.8666713287        0.7470804501       -1.6063215975
 C          1.0503254717        1.5957036570       -0.8809678263
 O          0.5325423689        2.5022276473       -1.5603299824
 H         -1.4629267895        0.1939578787        0.4706268436
 C         -1.9403755263        1.1291826072        0.2178406793
 C         -1.3411349873        2.3198176691        0.6113170917
 C         -1.9669770727        3.5158242569        0.2908075394
 C         -3.1458690148        3.5100859971       -0.4358579393
 C         -3.7063899865        2.3252053286       -0.8750743050
 C         -3.0893490968        1.1213110578       -0.5516120854
 N         -3.6170680169       -0.1073636496       -0.9759300229
 S         -2.5881915478       -1.3772614495       -1.3405007279
 O         -1.3244518293       -0.9335020084       -1.8805111213
 O         -3.3796976797       -2.2351085433       -2.1990704184
 C         -2.3548748951       -2.1994195853        0.2211141293
 C         -1.0788477074       -2.4610453761        0.6779359853
 C         -0.9221865129       -3.1108981569        1.8919160039
 C         -2.0384565042       -3.4888263285        2.6215770440
 C         -3.3140432410       -3.2243242843        2.1458782916
 C         -3.4771684785       -2.5738921157        0.9337175556
 H         -4.4495698752       -2.3515037072        0.5274689850
 H         -4.1790358476       -3.5203397812        2.7171316847
 H         -1.9097519891       -3.9912683392        3.5671885568
 H          0.0697015629       -3.3074327132        2.2670836028
 H         -0.2348034510       -2.1377043202        0.0861952954
 H         -4.3851295306       -0.0411945700       -1.6277239393
 H         -4.6051799949        2.3277195521       -1.4728328750
 H         -3.6219243768        4.4460864227       -0.6864485503
 H         -1.5193715703        4.4523259540        0.5802712933
 C         -0.0216019613        2.2082891391        1.3321597183
 H         -0.1817426832        1.6051467075        2.2422738545
 C          0.5468322661        3.5406521317        1.7927345139
 C          2.0264710432        3.7463319075        1.9147302115
 C          1.2520364813        4.4821172699        0.8647649957
 H          1.0946305212        5.5428366536        0.9964783189
 H          1.3597921277        4.1802790179       -0.1648516470
 H          2.4013520714        4.2984253990        2.7635013410
 H          2.6697768464        2.9375947683        1.5989740304
 H         -0.0634675968        3.9926741233        2.5687236400
 O          1.3379721534       -0.0577516482        2.3162871669
