  62
        -98.93883755
 C         -2.5830373006        0.1288607613        0.4447098505
 C         -2.2467864237        0.7886024317       -0.7604064255
 C         -1.7437758021        2.1678565982       -0.6365654174
 C         -1.6271086979        2.7195212121        0.5833400683
 C         -1.1862819142        4.1119412759        0.9664953318
 C         -0.0500169615        4.7613242088        0.1709909583
 C          1.0903192554        3.8124228754       -0.2245371737
 H          2.0410289233        4.2528039405        0.0829697003
 H          0.9911009168        2.8572380297        0.2954366027
 C          1.1540011809        3.5500351535       -1.7302301854
 H          0.9976129645        4.4892991711       -2.2662390052
 H          2.1548758867        3.1898652048       -1.9792283906
 C          0.1579573506        2.5083057012       -2.2332487440
 H          0.3985096700        1.5369483886       -1.7911027496
 H          0.2772793327        2.4138337028       -3.3155643529
 C         -1.3177556707        2.8147608111       -1.9233709818
 H         -1.5070072808        3.8856274669       -1.9205538399
 H         -1.9313152285        2.3552987953       -2.7031876387
 H         -0.4533038857        5.2312704809       -0.7249086558
 H          0.3449887466        5.5643703492        0.7964745642
 H         -2.0658281979        4.7628666380        0.9265696345
 H         -0.8943076471        4.0345493574        2.0172660048
 O         -1.9758988892        2.0476749016        1.7205208818
 C         -2.4241708105        0.7401068464        1.6845953093
 O         -2.6536456780        0.2413368014        2.8083153367
 H         -0.3856880127       -0.9866107574        0.6777784034
 C         -0.5978388080       -1.7992889397       -0.0013174451
 C         -1.9191741444       -2.1438145130       -0.2557184145
 C         -2.1715682381       -3.2160243487       -1.1007308876
 C         -1.1213686882       -3.9017456472       -1.6887444713
 C          0.1900068148       -3.5252475995       -1.4673998721
 C          0.4525830032       -2.4498055932       -0.6233621088
 N          1.7669817185       -1.9903336356       -0.4388790181
 S          2.1491113151       -0.8392530977        0.7219803378
 O          1.9337837083       -1.3703998195        2.0525717736
 O          1.4842532031        0.3978018609        0.4059387985
 C          3.8958482970       -0.6762708759        0.4095745788
 C          4.3118903798        0.2215741606       -0.5547186835
 C          5.6663277382        0.3373822686       -0.8236676386
 C          6.5772111738       -0.4443455859       -0.1286276893
 C          6.1452693916       -1.3401601548        0.8379016105
 C          4.7917489083       -1.4601473479        1.1115959815
 H          4.4112931309       -2.1325820651        1.8637264123
 H          6.8561909996       -1.9434152949        1.3790901905
 H          7.6309488937       -0.3522286712       -0.3393113133
 H          6.0054423517        1.0355534819       -1.5718324580
 H          3.5652024933        0.8115836267       -1.0609835651
 H          2.4764783570       -2.7015848126       -0.5368122054
 H          1.0037046930       -4.0451559634       -1.9485589243
 H         -1.3299032951       -4.7358363068       -2.3415707163
 H         -3.1883108954       -3.5106707004       -1.3039435737
 C         -3.0034934273       -1.3290694152        0.4114824613
 H         -3.0793645848       -1.6497102280        1.4620700321
 C         -4.3581181782       -1.4834542552       -0.2487895113
 C         -5.2936513844       -2.5715079631        0.1829384528
 C         -5.5873662056       -1.1458845620        0.5383830625
 H         -6.3998951527       -0.6428517383        0.0362485160
 H         -5.4455139295       -0.8316641727        1.5626292409
 H         -4.9649456147       -3.2305101628        0.9725296400
 H         -5.9104362938       -3.0476784610       -0.5642918902
 H         -4.3402927343       -1.2044340777       -1.2959387985
 O         -2.3683770226        0.2544271118       -1.8940335065
