  62
        -98.94217607
 C          1.7075681399        1.4539498600       -0.0225372994
 C          2.3430892895        0.6158610999        0.9286560607
 C          3.2153965395       -0.4327441302        0.3901351210
 C          3.3776552999       -0.5451368802       -0.9403202690
 C          4.2551084400       -1.5440773302       -1.6448063388
 C          3.6056911899       -2.9209149502       -1.8409119890
 C          3.4785507395       -3.7686819602       -0.5744876791
 H          3.2237283294       -4.7812816801       -0.8935770192
 H          4.4464571793       -3.8196237803       -0.0750117688
 C          2.4099576892       -3.2799428601        0.4134232506
 H          1.8225977290       -4.1325572100        0.7591608904
 H          1.7217471594       -2.6022846800       -0.0973678795
 C          2.9614812289       -2.5812656402        1.6559626008
 H          2.1166775188       -2.2277871301        2.2517630506
 H          3.5271644587       -3.2959071203        2.2576759310
 C          3.8628620892       -1.3770563803        1.3574116811
 H          4.0274490590       -0.8327722703        2.2906011612
 H          4.8264756892       -1.7121973904        0.9739614114
 H          4.2192673001       -3.4695669402       -2.5593583788
 H          2.6182896001       -2.7816988600       -2.2876502493
 H          4.4761417803       -1.1239341402       -2.6285157387
 H          5.1920314998       -1.6573632804       -1.0983610185
 O          2.7556923903        0.2802300899       -1.8235167692
 C          1.9061290703        1.2943118100       -1.3948987994
 O          1.4028928206        1.9520772101       -2.3262192095
 H         -0.4707583699        0.6670134003       -1.0094608601
 C         -1.1520630500        1.3393939603       -0.5070415203
 C         -0.6533813501        2.3521354703        0.2963681199
 C         -1.5624902002        3.1939962403        0.9321352197
 C         -2.9243219102        3.0303088605        0.7584377293
 C         -3.4156894400        2.0298027106       -0.0622582609
 C         -2.5193480800        1.1840798105       -0.6998142607
 N         -3.0075125998        0.1659864906       -1.5471599208
 S         -3.9009311302       -1.0595919593       -0.8396271111
 O         -4.1307333100       -2.0301792993       -1.8843486012
 O         -5.0705740703       -0.4859369892       -0.2260807114
 C         -2.8298884606       -1.7512877795        0.4071549192
 C         -2.1414059807       -2.9140451696        0.1246560493
 C         -1.2679884710       -3.4232051797        1.0716806796
 C         -1.0849172513       -2.7535001497        2.2716456896
 C         -1.7781617012       -1.5826704297        2.5373738895
 C         -2.6629539309       -1.0746030195        1.5994229292
 H         -3.2257370108       -0.1727693795        1.7772058791
 H         -1.6282256514       -1.0607384197        3.4687730295
 H         -0.3985803715       -3.1461309198        3.0054662398
 H         -0.7325950110       -4.3368422997        0.8698255097
 H         -2.3127589704       -3.4010218895       -0.8220775907
 H         -2.2883952997       -0.2396063695       -2.1294667706
 H         -4.4732492800        1.8812116107       -0.2067296512
 H         -3.6131870602        3.6913115406        1.2615977291
 H         -1.1935320603        3.9829988403        1.5680666698
 C          0.8288045799        2.5663245701        0.5073147704
 H          1.0091673195        2.5788353000        1.5923119904
 C          1.2380500702        3.9151895001       -0.0632046595
 C          1.2694500601        5.1375769100        0.8019712306
 C          2.5512906001        4.5118933299        0.3434907409
 H          3.1425947404        5.0160008199       -0.4059329789
 H          3.1391800098        3.9672729898        1.0683977811
 H          1.0120948897        5.0289161100        1.8447370305
 H          0.9732084103        6.0807579901        0.3690354505
 H          0.9433542505        4.0359783701       -1.0989763196
 O          2.1956198092        0.7484367899        2.1728220507
