  62
        -98.94166913
 C         -2.0711075096       -1.5208141773        0.0528101702
 C         -2.3593541483       -0.6037960419       -0.9879427761
 C         -3.6925301831        0.0199081962       -0.9436622471
 C         -4.5427777100       -0.2925969908        0.0498316792
 C         -5.9025174242        0.3123122249        0.2424826915
 C         -5.8373641140        1.5517155257        1.1457493774
 C         -4.7553525497        2.5536631532        0.7425961046
 H         -4.8241614679        3.4005577720        1.4288699202
 H         -3.7733364648        2.0989399580        0.8937642094
 C         -4.8636706154        3.0578048689       -0.7033574144
 H         -5.8650835885        2.8639209413       -1.0893261672
 H         -4.7184973262        4.1402381148       -0.7082417187
 C         -3.8280113651        2.4656029112       -1.6609952573
 H         -3.8514389044        3.0460192503       -2.5873074198
 H         -2.8289098285        2.5769272389       -1.2314701427
 C         -4.0319899507        0.9926995663       -2.0382774954
 H         -5.0561194911        0.8410362827       -2.3848529938
 H         -3.3519676648        0.7649711675       -2.8644261432
 H         -6.8127298814        2.0414575085        1.1309590460
 H         -5.6364779712        1.2249756998        2.1686848982
 H         -6.3174857027        0.5783001420       -0.7278034520
 H         -6.5468003592       -0.4336051823        0.7109618825
 O         -4.2330759316       -1.1761186535        1.0320978764
 C         -2.9996047223       -1.8025949408        1.0602363255
 O         -2.8497227593       -2.5889611545        2.0166117499
 O         -1.5614521174       -0.3016597010       -1.9134717888
 C         -0.7543943947       -2.2751730979        0.1597635492
 C          0.3023130763       -1.4425491671        0.8388001935
 C          1.0216443319       -1.9405922884        1.9185047748
 C          1.9953385353       -1.1710657088        2.5321793742
 C          2.2749719937        0.1053235414        2.0787993323
 C          1.5650733265        0.6098844729        0.9962018206
 C          0.5885379732       -0.1622584581        0.3838901950
 H          0.0436161824        0.2319000568       -0.4611184787
 N          1.8522166827        1.8995566987        0.5149216060
 S          3.4643790208        2.2866047669        0.2792706998
 O          4.0560022600        2.6663763779        1.5383046188
 O          3.4691951235        3.2999922663       -0.7516008313
 C          4.2174268543        0.7811712402       -0.3118376705
 C          5.1764314189        0.1435895313        0.4484736051
 C          5.7113505789       -1.0494518650       -0.0106695402
 C          5.2772911087       -1.5829945691       -1.2140636177
 C          4.3171911690       -0.9275194280       -1.9696931538
 C          3.7790962282        0.2657550822       -1.5157290330
 H          3.0317967848        0.8006642714       -2.0808577145
 H          3.9787257333       -1.3447515896       -2.9044036744
 H          5.6879391908       -2.5153546432       -1.5676512978
 H          6.4599685542       -1.5601548370        0.5731964981
 H          5.4835636639        0.5926429853        1.3788142122
 H          1.2943014290        2.1633927200       -0.2841797519
 H          3.0233925903        0.7220286560        2.5493559340
 H          2.5418808060       -1.5683980332        3.3735709763
 H          0.8025631392       -2.9325819854        2.2853949237
 H         -0.9722099055       -3.1312412972        0.8170194378
 C         -0.2940463551       -2.8429779960       -1.1779003626
 C          0.9017288818       -2.3491205383       -1.9294747001
 C          0.9484444193       -3.6811106732       -1.2476618130
 H          0.9347632651       -4.5769644048       -1.8494656240
 H          1.5428699788       -3.7579879647       -0.3497577769
 H          0.8314249910       -2.3144283159       -3.0059489012
 H          1.4771784732       -1.5424358469       -1.5040498879
 H         -1.1350347129       -3.1711872964       -1.7808319622
