  62
        -98.94661748
 C         -1.1597439108       -1.3535761824        0.2543191527
 C         -1.3686080622       -0.3289752437       -0.7004535166
 C         -2.3436945923        0.7066691793       -0.3270148113
 C         -2.9043846984        0.6834000424        0.8947965735
 C         -3.9533081456        1.6410664543        1.3790100018
 C         -5.3629326373        1.1047148245        1.0909417271
 C         -5.5595652992        0.6237685231       -0.3470196601
 H         -6.5979194624        0.2983036295       -0.4410348050
 H         -4.9321989512       -0.2538592107       -0.5190513347
 C         -5.2567216943        1.6804092748       -1.4187760174
 H         -5.2649758803        2.6749300854       -0.9713783341
 H         -6.0514282417        1.6563684553       -2.1674510240
 C         -3.9368175593        1.4700670893       -2.1636468202
 H         -3.9281790171        2.1340342491       -3.0321475992
 H         -3.8870774299        0.4440415652       -2.5369072704
 C         -2.6643566928        1.7544222586       -1.3550991603
 H         -2.7386864769        2.7401396399       -0.8934556359
 H         -1.8201102645        1.7618096413       -2.0501637058
 H         -6.0849414466        1.8921091577        1.3148998961
 H         -5.5582081370        0.2646478098        1.7615345450
 H         -3.8371947320        1.7660802649        2.4569527453
 H         -3.8174296391        2.6043761642        0.8913141862
 O         -2.6058038579       -0.2596090341        1.8227621672
 C         -1.7605280499       -1.3099224064        1.5176215643
 O         -1.6177622891       -2.1342387389        2.4423264887
 H          1.2400621411       -0.8269686908       -1.4052412607
 C          1.8052670747       -1.2968410520       -0.6138297744
 C          1.1806173710       -2.2246956965        0.2076584760
 C          1.9151113416       -2.7994200421        1.2379961486
 C          3.2413159133       -2.4551374349        1.4384439459
 C          3.8586174813       -1.5238015644        0.6219605582
 C          3.1275651536       -0.9384586297       -0.4029693093
 N          3.7316438514        0.0628069583       -1.2020975398
 S          3.9502935341        1.5213154897       -0.4075681031
 O          4.3739178659        2.4657946485       -1.4154154642
 O          4.8569638112        1.3105373332        0.6919230649
 C          2.3399796417        1.9767253885        0.2146094539
 C          1.5901842067        2.9015356493       -0.4832636494
 C          0.3322577309        3.2386244158       -0.0122101787
 C         -0.1606937142        2.6320702307        1.1323258362
 C          0.5960420560        1.6899967533        1.8110963253
 C          1.8616661257        1.3605071712        1.3541750714
 H          2.4804714578        0.6446437815        1.8706818440
 H          0.2020233441        1.2053022704        2.6911943410
 H         -1.1397236132        2.8924267482        1.5020565634
 H         -0.2601358093        3.9687850307       -0.5394589016
 H          2.0111194026        3.3486397447       -1.3696271933
 H          3.2142083027        0.2380434094       -2.0535682613
 H          4.8805359242       -1.2204135202        0.7806130875
 H          3.7985507536       -2.9116958638        2.2423967097
 H          1.4339039216       -3.5081812094        1.8962502920
 C         -0.2747277057       -2.5670267501        0.0048490460
 H         -0.5550223582       -3.2990862784        0.7738045280
 C         -0.5062859236       -3.1927637424       -1.3572548447
 C         -0.1183997931       -4.6230150013       -1.5745239939
 C         -1.5660636661       -4.2397594791       -1.5114790669
 H         -2.1463912483       -4.2558548582       -2.4218601864
 H         -2.1288516973       -4.5158532694       -0.6313207576
 H          0.2997690007       -5.1611521915       -0.7372911893
 H          0.2982607410       -4.9043544203       -2.5294291404
 H         -0.3681985385       -2.5030126419       -2.1791237898
 O         -0.7924509380       -0.2619886697       -1.8196918330
