  62
        -98.94317341
 C         -1.7296035132       -0.9537059222        0.3069509842
 C         -2.9412733621       -0.8154053740        1.0358032454
 C         -3.6951769749        0.4234045083        0.8176926985
 C         -3.1880134231        1.3789368770        0.0188782522
 C         -3.8188052820        2.7117177104       -0.2796090360
 C         -4.8636778669        2.6685183733       -1.4032366836
 C         -6.1865153363        1.9942840309       -1.0370162292
 H         -6.5746988674        2.4331181667       -0.1173339740
 H         -6.8961078077        2.2275044743       -1.8334022966
 C         -6.1000565900        0.4690164752       -0.8852317628
 H         -5.1827147337        0.1077116290       -1.3561893711
 H         -6.9344300772        0.0021699349       -1.4136323649
 C         -6.1442845171       -0.0276087947        0.5601175999
 H         -6.0390125798       -1.1157776899        0.5525594542
 H         -7.1148674988        0.2119558067        1.0000241078
 C         -5.0434971562        0.5500927731        1.4594250288
 H         -5.2581221233        1.5924853774        1.6938579005
 H         -5.0245441255       -0.0221007311        2.3902118401
 H         -5.0750210968        3.7008773590       -1.6914620660
 H         -4.4264769813        2.1655590206       -2.2690713982
 H         -4.2736309262        3.1133356602        0.6262940373
 H         -3.0105961796        3.3779985788       -0.5884057292
 O         -1.9945685685        1.2388411532       -0.6119062690
 C         -1.2512183281        0.0656291902       -0.5187666061
 O         -0.2166077952        0.0867032341       -1.2100417414
 O         -3.3723598140       -1.6892389210        1.8334974744
 C         -0.9463161813       -2.2393926445        0.5163485141
 C          0.4844419486       -1.9110263101        0.8514572436
 C          0.8272176092       -1.5552036013        2.1523320471
 C          2.1224088511       -1.1852310101        2.4648673392
 C          3.0946101251       -1.1327846297        1.4810443200
 C          2.7537433670       -1.4636934298        0.1761352540
 C          1.4643005396       -1.8791601294       -0.1272519234
 H          1.2115328931       -2.1316784473       -1.1449244226
 N          3.7122346642       -1.3569450990       -0.8444783080
 S          4.7771023208       -0.0711921433       -0.8045382597
 O          5.1193783077        0.1806764382       -2.1879425527
 O          5.8895467023       -0.4026882470        0.0542819326
 C          3.9136588514        1.3357435111       -0.1169996257
 C          2.6116418716        1.6041897176       -0.4886631343
 C          1.9819655479        2.7168693761        0.0473061058
 C          2.6584927239        3.5448242823        0.9287134332
 C          3.9686459038        3.2651717080        1.2857241018
 C          4.6017797777        2.1504149264        0.7612478389
 H          5.6145110859        1.8882075937        1.0219572201
 H          4.4954256435        3.9084051338        1.9721253891
 H          2.1606560010        4.4087880465        1.3403183006
 H          0.9579795903        2.9159451080       -0.2281662196
 H          2.0734014709        0.9529304511       -1.1590052613
 H          3.3309091469       -1.4823657857       -1.7708637380
 H          4.1070050549       -0.8360169174        1.7041382998
 H          2.3773500482       -0.9230559852        3.4802908187
 H          0.0626118196       -1.5651990922        2.9165068532
 H         -1.4113345662       -2.6973966092        1.4037974122
 C         -1.0721236982       -3.2545039454       -0.6103930820
 C         -2.3973378370       -3.4904107437       -1.2697575296
 C         -1.2736491803       -2.8747108580       -2.0455362877
 H         -0.7872925790       -3.4731774584       -2.8025562344
 H         -1.3307638203       -1.8263245839       -2.2924607573
 H         -2.6901633445       -4.5040240846       -1.4981494746
 H         -3.2182345978       -2.8547091125       -0.9708460061
 H         -0.4612229556       -4.1332325682       -0.4256048991
