  62
        -98.93788893
 C         -1.8209219370       -0.5937045353       -0.7463412732
 C         -3.1426448713       -1.0912288108       -0.7046224936
 C         -4.2048321624       -0.1186034106       -0.3929548375
 C         -3.8765769354        1.1668540824       -0.1636286452
 C         -4.7379317726        2.3774237652        0.1306768026
 C         -6.1970881208        2.2168211468        0.5488836096
 C         -6.4024232616        1.5679350310        1.9172090580
 H         -7.4737957748        1.4169857500        2.0665883642
 H         -6.0541049909        2.2614357339        2.6869210557
 C         -5.6792172133        0.2407374583        2.1324718349
 H         -5.9114491690       -0.1064075912        3.1430940208
 H         -4.5996864608        0.4002385872        2.0891565779
 C         -6.0567702512       -0.8753336842        1.1601405965
 H         -7.1391181894       -1.0179689252        1.1669719173
 H         -5.5964642211       -1.7980204271        1.5242624798
 C         -5.5970148433       -0.6722638628       -0.2943052652
 H         -6.2979444167       -0.0522670684       -0.8481337183
 H         -5.5724389725       -1.6525008238       -0.7794741624
 H         -6.7517204684        1.6790422681       -0.2143985390
 H         -6.6196310173        3.2242680016        0.5955786339
 H         -4.7044700131        2.9926120392       -0.7753882591
 H         -4.2048900878        2.9398474480        0.9039210913
 O         -2.5835161932        1.6009552546       -0.2206732403
 C         -1.5288225767        0.7460729246       -0.4984032782
 O         -0.4114046778        1.2920941409       -0.4944131237
 O         -3.4278883075       -2.3004629753       -0.9207470024
 C         -0.6811162611       -1.5451161094       -1.0573670435
 C          0.3268667140       -1.5509086266        0.0654590797
 C         -0.1243891515       -1.5885199280        1.3823307759
 C          0.7650329679       -1.5787998785        2.4393304127
 C          2.1295682729       -1.5448496699        2.2093267314
 C          2.5920636359       -1.5211315127        0.9014377600
 C          1.6947418387       -1.5287316974       -0.1609987676
 H          2.0743816765       -1.5083932463       -1.1709040213
 N          3.9834207823       -1.5018261903        0.6670572542
 S          4.8513844833       -0.1474934512        1.1330625644
 O          6.2371688791       -0.4629187101        0.8712143270
 O          4.5139449410        0.1790725127        2.4942560944
 C          4.3196780376        1.1475421797        0.0264074044
 C          3.0227427563        1.6115455504        0.1199985188
 C          2.5848330085        2.5656369134       -0.7848142722
 C          3.4514090258        3.0457294429       -1.7547570984
 C          4.7548001685        2.5768423753       -1.8300804407
 C          5.1928558189        1.6112093112       -0.9385316776
 H          6.1928771551        1.2093776583       -0.9666619246
 H          5.4258780438        2.9548014761       -2.5847230691
 H          3.1058486679        3.7884549298       -2.4568674925
 H          1.5597650368        2.8960241464       -0.7328844000
 H          2.3604624353        1.2262750197        0.8784034291
 H          4.2327062679       -1.7396311351       -0.2832811794
 H          2.8370857318       -1.5177975357        3.0214393610
 H          0.3946009414       -1.6005542452        3.4533723598
 H         -1.1896049776       -1.6171668054        1.5680603942
 H         -1.1402662354       -2.5438562641       -1.1102188680
 C         -0.0792119698       -1.2139113320       -2.4076373862
 C          0.5218044229       -2.2928392024       -3.2574180577
 C         -0.7866412805       -1.6743683648       -3.6455404865
 H         -0.8146513081       -1.0148804282       -4.4998160014
 H         -1.6879189203       -2.2549449751       -3.5132320504
 H          1.3925322288       -2.0582453041       -3.8514822505
 H          0.5092100433       -3.3008230777       -2.8707468830
 H          0.3760303951       -0.2296064453       -2.4282754694
