  62
        -98.94411474
 C         -2.2524747993       -0.8756944217        0.3581745557
 C         -2.4514056331        0.0276214908       -0.7140690980
 C         -3.2977032922        1.1930444391       -0.4178093682
 C         -3.7848512810        1.3564976458        0.8257068918
 C         -4.7047570776        2.4645827663        1.2478109397
 C         -6.1756315457        2.0566512561        1.0829333358
 C         -6.5003199824        1.4546384163       -0.2842317420
 H         -5.9736814971        0.5032564073       -0.3888059866
 H         -7.5695846854        1.2326363848       -0.2954575342
 C         -6.1529600787        2.3592074219       -1.4748979295
 H         -6.0314972251        3.3883689238       -1.1351067800
 H         -6.9876994829        2.3467763086       -2.1788514531
 C         -4.9072035697        1.9322452868       -2.2535154608
 H         -4.8781408958        2.5007480460       -3.1867689661
 H         -4.9847437407        0.8744655660       -2.5169403757
 C         -3.5667541175        2.1539784662       -1.5414816509
 H         -2.7698203852        1.9879405100       -2.2723172020
 H         -3.5023652742        3.1860660604       -1.1909924368
 H         -6.4173159513        1.3163974083        1.8492412168
 H         -6.7985326520        2.9367384094        1.2527173778
 H         -4.5146260527        2.6888399430        2.2988808257
 H         -4.4939562279        3.3514500557        0.6533596412
 O         -3.5273325884        0.4935889349        1.8430071638
 C         -2.7650593393       -0.6445472197        1.6335982898
 O         -2.6082361479       -1.3537049967        2.6497101842
 H          0.1194853457       -0.2489147427        1.2221684761
 C          0.6373108806       -0.7541860126        0.4149041741
 C         -0.0186502023       -1.7641432372       -0.2784111660
 C          0.6639419568       -2.4160549873       -1.2967776197
 C          1.9583595939       -2.0471399794       -1.6208251131
 C          2.5993857400       -1.0286899556       -0.9405353466
 C          1.9314409029       -0.3790169103        0.0895111826
 N          2.5710471400        0.6640151625        0.7833805592
 S          4.1003538288        0.3699434574        1.4130250372
 O          4.2798112787       -1.0267831222        1.7358604939
 O          4.2454407150        1.3060025016        2.5067237834
 C          5.2038369934        0.8410806165        0.0977891924
 C          5.0822635114        2.1121203011       -0.4288060975
 C          5.9412556995        2.5000596366       -1.4445118753
 C          6.9037958457        1.6169818123       -1.9111372405
 C          7.0148392570        0.3454849123       -1.3697169513
 C          6.1577970619       -0.0495332144       -0.3541322889
 H          6.2026648031       -1.0296908345        0.0931506768
 H          7.7637569179       -0.3392217765       -1.7339030830
 H          7.5711521071        1.9221042063       -2.7016042219
 H          5.8572671368        3.4878059141       -1.8683743422
 H          4.3229276393        2.7678910269       -0.0363334394
 H          1.9844731760        1.1067287562        1.4759423882
 H          3.6046210613       -0.7346731174       -1.1944847656
 H          2.4741264111       -2.5585660050       -2.4190899715
 H          0.1815619721       -3.2117336687       -1.8400855090
 C         -1.4222274017       -2.1278341315        0.1443454750
 H         -1.3586395152       -2.6218235157        1.1257779886
 C         -2.1243005929       -3.0572603797       -0.8242178387
 C         -1.9515952835       -4.5411149183       -0.7100463218
 C         -3.2512010838       -3.9056656578       -0.3194488366
 H         -4.1115952204       -4.0534525952       -0.9547492642
 H         -3.4925197826       -3.8340669091        0.7315921541
 H         -1.3129599136       -4.9114794062        0.0777547052
 H         -1.9230287082       -5.1287283294       -1.6152181933
 H         -2.2267934567       -2.6255485013       -1.8130709637
 O         -1.9506413474       -0.1292645231       -1.8571181346
