  62
        -98.94285435
 C         -1.5778886871       -1.4576334545        0.1180084013
 C         -2.7101186803       -0.9693247103        0.8164898919
 C         -3.3572393881        0.2190396269        0.2485650262
 C         -2.8421381785        0.7951595344       -0.8526369526
 C         -3.3911124645        2.0067487962       -1.5569144449
 C         -2.9572751312        3.3435030177       -0.9394451542
 C         -3.6147770541        3.6900076345        0.3968193742
 H         -3.3949993931        4.7400144198        0.6002832136
 H         -4.6973138443        3.5966165283        0.3057419604
 C         -3.1205933665        2.8451955532        1.5796013356
 H         -2.1817036444        2.3551350519        1.3098859876
 H         -2.9075169007        3.4968288933        2.4302505813
 C         -4.1119617386        1.7841812311        2.0572784309
 H         -3.6467987532        1.2188133862        2.8691291050
 H         -5.0050447746        2.2703359866        2.4561780017
 C         -4.5405499729        0.7886044563        0.9715763987
 H         -5.2206072541        1.2691377080        0.2683523667
 H         -5.0649146226       -0.0391215072        1.4557812983
 H         -1.8723731899        3.3378350665       -0.8123585242
 H         -3.2056781665        4.1296488899       -1.6561244893
 H         -4.4800948482        1.9542811199       -1.5800946188
 H         -3.0203133453        1.9637186545       -2.5831354067
 O         -1.7388796427        0.3126789571       -1.4804538184
 C         -1.0701539521       -0.8131987219       -1.0129915235
 O         -0.0684942729       -1.1165661477       -1.6825165630
 O         -3.1553943362       -1.4979827168        1.8706767228
 C         -0.8511279111       -2.6584762128        0.6979055575
 C          0.6309728660       -2.3787663877        0.7319921188
 C          1.5930341647       -3.2088806073        0.1742128521
 C          2.9315255907       -2.8556936357        0.2119498086
 C          3.3389724313       -1.6710265178        0.7957325751
 C          2.3833253605       -0.8323583251        1.3554710544
 C          1.0480839414       -1.1976703015        1.3351093380
 H          0.3063181342       -0.5394459395        1.7723515757
 N          2.7798785894        0.3936048480        1.9297550901
 S          3.6219691797        1.4489220857        0.9347611493
 O          4.9678784512        0.9608190492        0.7693605129
 O          3.4893357179        2.7439048079        1.5652219923
 C          2.7670661741        1.4299403444       -0.6284366067
 C          3.2164994862        0.6089981281       -1.6419322768
 C          2.5124269094        0.5715056427       -2.8338060943
 C          1.3796162801        1.3523798318       -2.9917941147
 C          0.9443227947        2.1762817033       -1.9664344831
 C          1.6375164039        2.2111826190       -0.7685003867
 H          1.3307149065        2.8401088315        0.0532692580
 H          0.0595964763        2.7794239544       -2.0965585919
 H          0.8258537058        1.3137508509       -3.9163208679
 H          2.8420923684       -0.0746576476       -3.6310151648
 H          4.1049239981        0.0203887867       -1.4829109881
 H          2.0166477592        0.8876492688        2.3703049117
 H          4.3746868170       -1.3724492125        0.8160451914
 H          3.6677940467       -3.5095797126       -0.2301839582
 H          1.2959325459       -4.1219554514       -0.3142902618
 H         -1.2097122229       -2.7181491787        1.7398473884
 C         -1.2048804041       -3.9861579827        0.0453122989
 C         -2.5115037805       -4.1751947590       -0.6641772584
 C         -1.2320292137       -4.1609857064       -1.4425862914
 H         -0.8754656210       -5.0933635363       -1.8554490954
 H         -1.0054349405       -3.2982843978       -2.0486342150
 H         -3.0307533594       -5.1136922045       -0.5392126277
 H         -3.1683720762       -3.3210208270       -0.7424180859
 H         -0.8533733590       -4.8314073155        0.6291759322
