  62
        -98.94724734
 C          0.9210678335        1.5641259045       -0.8618302870
 C          2.2229355083        1.5579369217       -0.2971125418
 C          3.0387491375        0.3662121456       -0.5446184471
 C          2.5360080932       -0.6401754368       -1.2810586315
 C          3.2237051921       -1.9403583275       -1.5967872662
 C          3.0878538524       -2.9846873758       -0.4798505458
 C          3.9545664733       -2.7291648830        0.7537954898
 H          3.9539807458       -3.6498827308        1.3409372307
 H          4.9833216620       -2.5384988752        0.4448580224
 C          3.4577720735       -1.5817668494        1.6447970899
 H          2.4094435881       -1.3691345626        1.4179845971
 H          3.4915040958       -1.8962407126        2.6911549940
 C          4.2724805536       -0.2920402970        1.5371818796
 H          3.7970006438        0.4624983005        2.1692402221
 H          5.2819137563       -0.4651795013        1.9186712020
 C          4.3802860287        0.2794030301        0.1178477857
 H          5.0609812004       -0.3260832889       -0.4805582263
 H          4.7820437104        1.2935011095        0.1887525563
 H          2.0404435134       -3.0366329362       -0.1699395580
 H          3.3634184563       -3.9552084793       -0.8999359495
 H          2.7520179271       -2.3334887602       -2.5000636991
 H          4.2791972415       -1.7622145967       -1.8046184357
 O          1.3069872936       -0.5787857955       -1.8501114873
 C          0.4538176336        0.4940401182       -1.6255382830
 O         -0.6579736740        0.3566429692       -2.1736921644
 O          2.6815527648        2.5129776551        0.3875915180
 C          0.0286779485        2.7316799043       -0.4745866031
 C         -0.7156039876        2.3735476837        0.7921764838
 C         -0.7626959822        3.2355213400        1.8810815864
 C         -1.3862555171        2.8497038301        3.0551195767
 C         -1.9359700391        1.5860710574        3.1805082466
 C         -1.8946349648        0.7190927703        2.0949250548
 C         -1.3280259463        1.1342223330        0.9010062375
 H         -1.3244479482        0.4579931564        0.0622702114
 N         -2.4010942791       -0.5871990552        2.1684944047
 S         -1.5589737570       -1.8125058591        1.3869896586
 O         -1.9195362072       -3.0132890051        2.1168196933
 O         -0.1433151865       -1.5328723619        1.3157196717
 C         -2.2756818090       -1.9214089775       -0.2366454680
 C         -1.5122717131       -2.4591296353       -1.2519450884
 C         -2.0747553921       -2.6082143069       -2.5086446487
 C         -3.3863067491       -2.2193033801       -2.7259890541
 C         -4.1410405345       -1.6822799418       -1.6947877002
 C         -3.5852016110       -1.5335930362       -0.4346871472
 H         -4.1405288996       -1.1115279321        0.3866186054
 H         -5.1595378898       -1.3743516234       -1.8698415038
 H         -3.8196016101       -2.3294021770       -3.7077497502
 H         -1.4822249583       -3.0146119311       -3.3125903796
 H         -0.4878417539       -2.7299177414       -1.0486190743
 H         -2.7178787893       -0.8774157902        3.0823547373
 H         -2.3824329180        1.2684005575        4.1104325391
 H         -1.4174486601        3.5286403719        3.8937640786
 H         -0.2866681181        4.2023831723        1.8133861435
 H          0.7104399533        3.5601401115       -0.2370124010
 C         -0.9304297499        3.1912021050       -1.5531572606
 C         -1.4434183474        4.5987888346       -1.5202677504
 C         -0.4655458302        4.1816465652       -2.5765277997
 H         -0.8127544267        4.0705663926       -3.5924148496
 H          0.5514220499        4.5382144647       -2.4999519854
 H         -2.4671675009        4.7785918469       -1.8096589741
 H         -1.0893703133        5.2446264770       -0.7312642194
 H         -1.6062027246        2.4138272175       -1.8840802160
