  62
        -98.94511558
 C          0.9648958930        1.2272292519        0.4722069026
 C          1.4938050180        0.0627026145        1.0818810876
 C          2.2510237870       -0.8438287393        0.2090721480
 C          2.3418078803       -0.5643991230       -1.1036910263
 C          3.0935852152       -1.3920794400       -2.1054047880
 C          4.5431446960       -0.9103772056       -2.2555556128
 C          5.2718478836       -0.7293356387       -0.9239020735
 H          6.2939110618       -0.4196665397       -1.1520989097
 H          4.8037057066        0.0887714347       -0.3717477543
 C          5.3013883126       -1.9849769088       -0.0413581967
 H          5.0793692484       -2.8661168713       -0.6443466348
 H          6.3110618073       -2.1094711872        0.3554145118
 C          4.3539652579       -1.9390447302        1.1588250371
 H          4.6140320615       -2.7639737843        1.8272572513
 H          4.5093998880       -1.0089053761        1.7110643348
 C          2.8586427659       -2.0656984280        0.8398492151
 H          2.6876941573       -2.9474065726        0.2177852717
 H          2.3307904641       -2.2010091155        1.7884468006
 H          5.0829871937       -1.6294202950       -2.8745250533
 H          4.5362333500        0.0493474919       -2.7775835826
 H          3.0763565610       -2.4346750860       -1.7923498178
 H          2.5844377817       -1.3055558711       -3.0673027788
 O          1.7863391097        0.5377149911       -1.6639745470
 C          1.0692807369        1.4507725818       -0.9031860686
 O          0.6030781516        2.3977786629       -1.5633641753
 O          1.3275763854       -0.2146383840        2.3002431207
 C          0.1146891799        2.1440644145        1.3368601101
 C         -1.2167111377        2.3392861032        0.6566985478
 C         -1.7778610620        3.5721637903        0.3567572862
 C         -2.9786141675        3.6406394604       -0.3298628682
 C         -3.6257706058        2.4934018663       -0.7499154512
 C         -3.0733610130        1.2534488034       -0.4473514247
 C         -1.9006013133        1.1888299108        0.2824339664
 H         -1.4746673625        0.2246690685        0.5191192480
 N         -3.6857719072        0.0578623358       -0.8538532616
 S         -2.7282787902       -1.2420242694       -1.3036091175
 O         -1.4882381443       -0.8298538006       -1.9186326697
 O         -3.6028247614       -2.0564398481       -2.1234107538
 C         -2.4176977121       -2.1046499289        0.2220945883
 C         -3.4934783880       -2.4156871848        1.0303776919
 C         -3.2652327803       -3.1024479572        2.2116732054
 C         -1.9735874500       -3.4680334723        2.5602840204
 C         -0.9052793745       -3.1540378277        1.7347928693
 C         -1.1270127283       -2.4658991220        0.5526061326
 H         -0.3194568833       -2.1867994701       -0.1082304409
 H          0.1005475863       -3.4298822698        2.0076700624
 H         -1.7949683617       -3.9995691265        3.4815935790
 H         -4.0925533787       -3.3489128003        2.8574294177
 H         -4.4810434589       -2.1160482348        0.7221190863
 H         -4.4785987657        0.1721283755       -1.4685895912
 H         -4.5424242217        2.5522696315       -1.3169240211
 H         -3.4038400057        4.6048031176       -0.5646154182
 H         -1.2639948747        4.4786674530        0.6314070518
 H         -0.0582648779        1.5578765518        2.2557651443
 C          0.7847085646        3.4368771199        1.7726784285
 C          2.2780252855        3.5455003134        1.8411545389
 C          1.5160180295        4.3309631164        0.8184456838
 H          1.4328280133        5.3995777558        0.9542640634
 H          1.5666862620        4.0234087833       -0.2138078409
 H          2.7187189184        4.0710739652        2.6750035854
 H          2.8552195802        2.6966200753        1.5036663163
 H          0.2337162453        3.9276210538        2.5692745703
