  62
        -98.94508373
 C         -1.3046720909       -1.4930048580        0.4002489204
 C         -1.8261270303       -0.4988346372        1.2659824598
 C         -2.8372924896        0.3962395033        0.6945914291
 C         -3.1842773094        0.2674927729       -0.5983820209
 C         -4.1934643686        1.1074909832       -1.3325332916
 C         -3.6268715575        2.4376286425       -1.8483894021
 C         -3.3956833570        3.5055054829       -0.7783041826
 H         -3.2318785262        4.4499207125       -1.3012717131
 H         -4.2974343370        3.6177197639       -0.1746278929
 C         -2.1902769574        3.2370911325        0.1335461078
 H         -1.5253668678        2.5154396518       -0.3492077017
 H         -1.6132888967        4.1582909121        0.2509995874
 C         -2.5530671680        2.7493578935        1.5367661880
 H         -3.0929240275        3.5383061641        2.0659047774
 H         -1.6266747883        2.5545291031        2.0828016582
 C         -3.4035644590        1.4731510141        1.5710317884
 H         -3.4097889194        1.0956516446        2.5968471886
 H         -4.4280833487        1.6986276747        1.2752248981
 H         -2.6854219076        2.2396454616       -2.3677551118
 H         -4.3354292771        2.8331284727       -2.5802329325
 H         -4.5244814989        0.5177889330       -2.1902095913
 H         -5.0530623086        1.3000651242       -0.6894585618
 O         -2.6468890599       -0.6827577780       -1.4059393003
 C         -1.6761604507       -1.5633696084       -0.9440721697
 O         -1.2487948611       -2.3400846992       -1.8187007392
 O         -1.4555683905       -0.3602107669        2.4627205998
 C         -0.2047359417       -2.3867961486        0.9437310711
 C          1.0044814986       -2.3387822999        0.0399768013
 C          1.7985514078       -3.4374270006       -0.2616442280
 C          2.9041996381       -3.2934483119       -1.0833802478
 C          3.2452007191       -2.0642428924       -1.6167399584
 C          2.4527007199       -0.9586043117       -1.3250155291
 C          1.3583932296       -1.1058255004       -0.4911745693
 H          0.7338234602       -0.2506925099       -0.2907650398
 N          2.7348344609        0.2985161579       -1.8669344197
 S          2.0983797218        1.7099581886       -1.2625522206
 O          0.6723391519        1.7630220496       -1.4699289809
 O          2.8709824327        2.7450924077       -1.9164581009
 C          2.4853410714        1.6952715392        0.4788006695
 C          3.8179657913        1.6824364184        0.8425447698
 C          4.1464384210        1.6384503289        2.1873815799
 C          3.1418722308        1.6023547401        3.1430664597
 C          1.8091270209        1.6232120509        2.7633280094
 C          1.4765799312        1.6730791705        1.4190876593
 H          0.4476876413        1.6833196310        1.0939658791
 H          1.0209015107        1.5841119918        3.4986432293
 H          3.3968419306        1.5588689804        4.1901288998
 H          5.1820360210        1.6271666383        2.4867799401
 H          4.5711085415        1.7182127575        0.0726466000
 H          3.6138760711        0.4059156570       -2.3465596296
 H          4.1008179093       -1.9605523334       -2.2658070783
 H          3.5096406875       -4.1564351224       -1.3157218773
 H          1.5454269070       -4.4098492503        0.1273266224
 H          0.0810674185       -1.9033534783        1.8946286509
 C         -0.6423123128       -3.8010458081        1.2994800917
 C         -2.0906934731       -4.1646373569        1.4271102316
 C         -1.2772817832       -4.7156079481        0.2965497720
 H         -1.0144811840       -5.7632365283        0.3178393326
 H         -1.4452653927       -4.3225634185       -0.6935942482
 H         -2.3839185237       -4.8285067463        2.2267759418
 H         -2.8220498225       -3.4016449565        1.2014468610
 H          0.0242101067       -4.2645227582        2.0202088521
