  62
        -98.93841573
 C          1.7442445215        0.7232376388        0.0839424399
 C          2.9178338741        1.2482043788        0.6718832947
 C          4.1875531622        0.9363043078       -0.0065189367
 C          4.1622054839        0.1931382001       -1.1265854885
 C          5.3389490668       -0.2835387772       -1.9324119520
 C          5.7678238849       -1.6913365620       -1.4849888415
 C          6.7607009249       -1.7237221646       -0.3235608431
 H          6.8751826100       -2.7679528388       -0.0235661843
 H          7.7342836159       -1.3754371528       -0.6747568195
 C          6.3607205533       -0.9005636692        0.9037700168
 H          5.3000824294       -1.0481731930        1.1152646403
 H          6.9173763542       -1.2855333230        1.7604606784
 C          6.6604352586        0.5979945234        0.7498715332
 H          7.2220079459        0.9446332176        1.6198125952
 H          7.3084528412        0.7436771010       -0.1142068150
 C          5.4268169677        1.5056181544        0.6289075232
 H          5.7066113676        2.4177924043        0.0916220484
 H          5.1057364934        1.8180787954        1.6275451129
 H          4.8650889648       -2.2457715486       -1.2149348607
 H          6.2236906595       -2.2053297470       -2.3337116634
 H          5.0046022785       -0.3357033615       -2.9706330723
 H          6.1638025890        0.4194579745       -1.8641529848
 O          3.0069088950       -0.2873390865       -1.6647481408
 C          1.7752312456       -0.0450379131       -1.0791208792
 O          0.8100452743       -0.5542150734       -1.6796007501
 O          2.9072803852        1.9392269846        1.7265655756
 C          0.4062887976        1.0009590048        0.7441716276
 C         -0.2713264671       -0.2931222214        1.1202939791
 C          0.4476556026       -1.2369801275        1.8504340106
 C         -0.1321331796       -2.4323042387        2.2257338637
 C         -1.4432011424       -2.7129193238        1.8819823986
 C         -2.1742892406       -1.7754708796        1.1637901228
 C         -1.5896740382       -0.5706487868        0.7947171410
 H         -2.1726816883        0.1396763828        0.2337121945
 N         -3.5202003771       -2.0114870688        0.8494029869
 S         -4.1584725726       -1.5444991347       -0.6261655065
 O         -5.3768021458       -2.3202903139       -0.7397250627
 O         -3.2118917918       -1.6937812093       -1.7052100033
 C         -4.5979077459        0.1666909696       -0.4087268753
 C         -4.2993195074        1.0708581926       -1.4083738691
 C         -4.6893202877        2.3925285604       -1.2554438386
 C         -5.3670526760        2.7839402642       -0.1106871010
 C         -5.6576374399        1.8630283511        0.8845803080
 C         -5.2750565650        0.5396340902        0.7357017718
 H         -5.4870932202       -0.2047818733        1.4845386457
 H         -6.1820802917        2.1728128909        1.7739745912
 H         -5.6666465068        3.8135083636        0.0060836916
 H         -4.4617318446        3.1092063053       -2.0288963868
 H         -3.7581082972        0.7246745411       -2.2751755182
 H         -3.8667075170       -2.9186164833        1.1265267925
 H         -1.8966863288       -3.6499057888        2.1678731398
 H          0.4405094580       -3.1558332877        2.7864761150
 H          1.4732916354       -1.0190630176        2.1159645593
 H          0.6503688073        1.5383136934        1.6731089973
 C         -0.4439710904        1.9024488333       -0.1251958982
 C         -1.4367773569        2.8299235701        0.5077671494
 C         -0.1846166874        3.3781109331       -0.1059557525
 H         -0.2587243305        3.9252241512       -1.0336724966
 H          0.5966915806        3.7342947298        0.5494859866
 H         -2.3758536334        3.0024579239        0.0045731648
 H         -1.5086974382        2.8191567608        1.5846643752
 H         -0.6941061799        1.4494370942       -1.0787562088
