  62
        -98.94951621
 C         -1.5503195014       -0.9310133831       -0.7116197793
 C         -1.3586324973       -1.7287336832        0.4417711409
 C         -0.2801143317       -2.7249861124        0.3596242519
 C          0.4721243993       -2.7936817014       -0.7531476587
 C          1.5986613729       -3.7621502586       -0.9729924381
 C          2.9538746219       -3.1909493352       -0.5359738653
 C          2.9536345203       -2.5819792153        0.8663349086
 H          3.9766777497       -2.2640913504        1.0833868124
 H          2.3359651825       -1.6808529153        0.8827562092
 C          2.4676360392       -3.5271503843        1.9732738340
 H          2.5202797272       -4.5626583347        1.6332551620
 H          3.1375781046       -3.4308551048        2.8303705707
 C          1.0548770247       -3.2232133834        2.4763876256
 H          0.9077990434       -3.7507230033        3.4230989640
 H          0.9670993807       -2.1517010803        2.6774449106
 C         -0.0888787119       -3.6342024006        1.5400756323
 H          0.0554909206       -4.6671040496        1.2139162939
 H         -1.0208053822       -3.5805478274        2.1108426280
 H          3.6926679299       -3.9938772003       -0.5811615758
 H          3.2544241563       -2.4168135713       -1.2461928031
 H          1.3881037302       -4.6768586998       -0.4216543798
 H          1.6421419077       -3.9948381956       -2.0387949922
 O          0.2952118875       -1.9697458964       -1.8184820589
 C         -0.7122079895       -1.0170476007       -1.8219321319
 O         -0.7588925602       -0.3217862672       -2.8568344626
 O         -2.0669148284       -1.6342527854        1.4785221446
 C         -2.6447685605        0.1226423790       -0.7365965857
 C         -2.3790392605        1.1345759534        0.3513291808
 C         -3.3400416625        1.5926485319        1.2423016699
 C         -2.9954194728        2.4944750344        2.2350796829
 C         -1.6939407339        2.9417861820        2.3704546950
 C         -0.7281927876        2.4988830361        1.4734246095
 C         -1.0849523220        1.6270784066        0.4596325948
 H         -0.3351521870        1.2893431492       -0.2408866133
 N          0.6055063122        2.9260275670        1.5596087564
 S          1.8258747637        1.8456797163        1.1719920388
 O          1.4783530468        0.4896182614        1.5238738423
 O          3.0012362463        2.3861323613        1.8246818418
 C          2.0245284049        2.0140358115       -0.5882339811
 C          2.0299224382        3.2810897636       -1.1370312996
 C          2.2021484395        3.4149088115       -2.5051301610
 C          2.3680535103        2.2880021981       -3.2962792423
 C          2.3679186113        1.0235259855       -2.7293407710
 C          2.1972591967        0.8844926616       -1.3617571971
 H          2.1727820604       -0.0832776841       -0.8855673521
 H          2.4808305833        0.1442784353       -3.3431826205
 H          2.4937551800        2.3924696745       -4.3623823457
 H          2.2015500029        4.3960874235       -2.9521015015
 H          1.8935287633        4.1323364306       -0.4911722012
 H          0.8290326211        3.4777890549        2.3750563759
 H         -1.4230667471        3.6222946055        3.1632948834
 H         -3.7490420500        2.8396544580        2.9266849924
 H         -4.3539770583        1.2349555168        1.1696712154
 H         -2.5522559561        0.6328651200       -1.7068195983
 C         -4.0116821339       -0.5219280703       -0.6498050133
 C         -5.2005173390        0.1461070898       -1.2709269762
 C         -4.6238645325       -1.0883592692       -1.8944003844
 H         -5.1773249735       -2.0124766379       -1.8219865040
 H         -4.0634470058       -0.9862434377       -2.8124619940
 H         -6.1549745152        0.0681459671       -0.7725629172
 H         -5.0391231605        1.0881458879       -1.7726200047
 H         -4.1543559529       -1.0723667836        0.2728307621
