  62
        -98.93474760
 C         -1.7976180503       -1.1005798896        0.3094040351
 C         -2.1405309814       -0.0322396828       -0.5538104514
 C         -3.5836883436        0.2319846316       -0.7335811492
 C         -4.4883153683       -0.5185028984       -0.0799689182
 C         -6.0025587189       -0.5112964477       -0.1069931191
 C         -6.7687378989        0.6632507012       -0.7096908202
 C         -6.6424279889        1.9745752396        0.0653363917
 H         -7.1378822172        2.7602763571       -0.5092288791
 H         -7.1756367052        1.8701244113        1.0136948079
 C         -5.2168654920        2.4172350267        0.3861413222
 H         -5.2758301568        3.3559198529        0.9438216382
 H         -4.7437454599        1.6842190075        1.0429148909
 C         -4.3158447399        2.6533368801       -0.8244417620
 H         -3.3900969262        3.1088575327       -0.4617399434
 H         -4.7924261052        3.3619882858       -1.5047232803
 C         -3.9298206831        1.3941303332       -1.6192064917
 H         -4.7071377565        1.1199102187       -2.3284663550
 H         -3.0272337082        1.6235391202       -2.1933069131
 H         -6.4851755339        0.8055305252       -1.7483928746
 H         -7.8247376242        0.3795375761       -0.7068775447
 H         -6.2939711286       -1.4234802500       -0.6396421636
 H         -6.3184459243       -0.6485676181        0.9321037693
 O         -4.1080444749       -1.5305350594        0.7540230960
 C         -2.7791761400       -1.8313894543        0.9840799989
 O         -2.6014815324       -2.7566237745        1.8008017457
 H          1.3439887163       -0.0412695626       -0.9671500146
 C          1.2827096470        0.3518013475        0.0358143825
 C          0.4484206805       -0.2563682041        0.9604520877
 C          0.3638752206        0.2886714051        2.2373953275
 C          1.1013098406        1.4071107865        2.5827599190
 C          1.9357092159        2.0095222093        1.6570250413
 C          2.0112000428        1.4822432153        0.3764782182
 N          2.8877696187        2.0810532850       -0.5636850889
 S          4.4928050635        1.6681561617       -0.3185690859
 O          4.9229882139        2.2196477142        0.9404638482
 O          5.2102052017        2.1079512067       -1.4936072473
 C          4.4744061401       -0.1141467548       -0.2326694565
 C          4.2211950246       -0.7213662066        0.9811595796
 C          4.0938381559       -2.1003849404        1.0256937696
 C          4.2169740544       -2.8436798852       -0.1384533487
 C          4.4743103274       -2.2189843803       -1.3494479877
 C          4.5971936256       -0.8398252488       -1.4007302309
 H          4.7959706453       -0.3145584200       -2.3213423678
 H          4.5712260243       -2.8010749643       -2.2519480923
 H          4.1102727814       -3.9166588756       -0.1009264638
 H          3.8890317419       -2.5886602759        1.9649908394
 H          4.1311820357       -0.1090180582        1.8635435474
 H          2.6324751308        1.8672100597       -1.5182597064
 H          2.5333712934        2.8707053305        1.9083342639
 H          1.0271023784        1.8128600287        3.5804074563
 H         -0.2907071334       -0.1773766585        2.9613702669
 C         -0.3581664752       -1.4816843729        0.6158693543
 H         -0.4228145299       -2.1079066735        1.5196587391
 C          0.3170431299       -2.3312600116       -0.4518676218
 C         -0.4366497005       -3.4301326347       -1.1374524221
 C         -0.0024023132       -2.2231700619       -1.9111189476
 H          0.8077691173       -2.3335173923       -2.6173740350
 H         -0.7515540814       -1.5096956535       -2.2158734331
 H         -1.4854626356       -3.5345314275       -0.8994328076
 H          0.0665623641       -4.3679612353       -1.3164048413
 H          1.3526335781       -2.5383250397       -0.1980364943
 O         -1.3023124153        0.6742485028       -1.1702953950
