  62
        -98.94167595
 C          2.3860042171        1.2406936721        0.1596959701
 C          3.2930618821        0.5257914873        0.9827023501
 C          4.0383691306       -0.5599687866        0.3369137072
 C          3.8192749453       -0.8377631542       -0.9608511415
 C          4.5146625346       -1.8990279996       -1.7696415669
 C          3.8973763855       -3.2968728668       -1.6255834081
 C          4.1565741874       -3.9870472761       -0.2857379218
 H          3.8587067654       -5.0310988343       -0.4006843070
 H          5.2258750618       -3.9742988730       -0.0725337913
 C          3.3867069565       -3.3827357003        0.8970590033
 H          2.5663435926       -2.7664845836        0.5196143015
 H          2.9354883418       -4.1849432123        1.4857825308
 C          4.2419238914       -2.5464797151        1.8496060748
 H          4.9823712614       -3.1872665221        2.3331493905
 H          3.5904489419       -2.1390723778        2.6270648465
 C          4.9719695178       -1.3740053573        1.1812660872
 H          5.3646714630       -0.7233446718        1.9664176662
 H          5.8039778366       -1.7418327033        0.5814063928
 H          2.8201861728       -3.2228243425       -1.7957082272
 H          4.3156520861       -3.9212745762       -2.4184316079
 H          4.4348218619       -1.5943875944       -2.8153879434
 H          5.5696867407       -1.9358120478       -1.4967385378
 O          2.9193983426       -0.1501591886       -1.7109848494
 C          2.1593810058        0.8822600657       -1.1708648193
 O          1.3483525483        1.3780212391       -1.9736423659
 O          3.4677019976        0.7806690490        2.2044755506
 C          1.5755700028        2.3507377397        0.8068603597
 C          0.1129314992        2.1512393527        0.4995331649
 C         -0.6645334348        3.0625094813       -0.2011399903
 C         -1.9922546987        2.7826057058       -0.4749591312
 C         -2.5724698506        1.5999958278       -0.0550217560
 C         -1.8030182915        0.6802879918        0.6458606365
 C         -0.4760252013        0.9654979498        0.9228845366
 H          0.1268150284        0.2436669976        1.4621444912
 N         -2.3850808061       -0.5240517288        1.0856917191
 S         -3.1687558842       -1.4731353489       -0.0591546675
 O         -3.1327114528       -2.8152349180        0.4822242334
 O         -2.6051670453       -1.2984340912       -1.3778977378
 C         -4.8465619855       -0.8790523390       -0.0212359717
 C         -5.4550002409       -0.4633040780       -1.1891782352
 C         -6.7646757890       -0.0114186401       -1.1379185076
 C         -7.4384337024        0.0155150333        0.0735245788
 C         -6.8134526917       -0.4079441557        1.2372032717
 C         -5.5051007465       -0.8621570313        1.1928662098
 H         -4.9838288475       -1.2025149756        2.0718948572
 H         -7.3406761710       -0.3851600170        2.1772478591
 H         -8.4566412518        0.3692184338        0.1107359833
 H         -7.2516594710        0.3180065861       -2.0416714747
 H         -4.8878011839       -0.4951943097       -2.1059497462
 H         -1.7562500622       -1.0948695274        1.6329662734
 H         -3.6037611573        1.3768279506       -0.2747846858
 H         -2.5833178723        3.4952838835       -1.0296645733
 H         -0.2230875986        3.9777200965       -0.5594660402
 H          1.7174088110        2.1904719048        1.8892395277
 C          2.0747017529        3.7569031773        0.5148341112
 C          3.5257023559        4.0150579720        0.2421672685
 C          2.5147477437        4.1958359402       -0.8482583628
 H          2.2767547155        5.2019224071       -1.1616781948
 H          2.4770049514        3.4707368466       -1.6455500465
 H          3.9818830702        4.8928250025        0.6745921938
 H          4.1841449272        3.1598567302        0.1915454900
 H          1.5623373202        4.4978078486        1.1209886773
