  62
        -98.94522565
 C         -0.9610885508       -1.5302252571       -0.6621671616
 C         -2.1880057534       -1.7882130097        0.0050205014
 C         -3.2293195888       -0.7649218118       -0.1239145216
 C         -2.9916952978        0.3348030460       -0.8612420587
 C         -3.9592094668        1.4601697209       -1.1103301429
 C         -4.0064770197        2.5084593279        0.0095234030
 C         -4.6883200198        2.0563271619        1.3011259138
 H         -5.6704149524        1.6426515956        1.0701601869
 H         -4.8472405125        2.9488953036        1.9095265256
 C         -3.8776891872        1.0400381479        2.1176458606
 H         -3.8722952181        1.3365146395        3.1689076601
 H         -2.8393955071        1.0427162754        1.7776085503
 C         -4.4119167775       -0.3906208268        2.0532888364
 H         -5.4016267958       -0.4349351701        2.5136118191
 H         -3.7428749323       -1.0341390182        2.6303689459
 C         -4.5084403581       -0.9612047993        0.6325646396
 H         -5.3404928790       -0.5029678781        0.0981529134
 H         -4.6890174491       -2.0364970182        0.7061097538
 H         -4.5489695716        3.3737486949       -0.3781818517
 H         -2.9855212662        2.8215083048        0.2326352660
 H         -4.9578677017        1.0527022976       -1.2719808406
 H         -3.6319572107        1.9512370920       -2.0290123540
 O         -1.8156489951        0.5349211315       -1.5091127690
 C         -0.7705592714       -0.3759039721       -1.4228899250
 O          0.2360012453       -0.0295557126       -2.0716792529
 O         -2.4045433129       -2.8361777296        0.6710202548
 C          0.1275864287       -2.5755867104       -0.4930080598
 C          1.0788712276       -2.1951374507        0.6171121618
 C          1.2996301663       -3.0506266426        1.6899331260
 C          2.1775334433       -2.6984913935        2.6997752709
 C          2.8490496904       -1.4906781848        2.6573829369
 C          2.6286154907       -0.6231497235        1.5918146759
 C          1.7487280633       -0.9798317037        0.5806871821
 H          1.5928732970       -0.3095374890       -0.2490814823
 N          3.2537407906        0.6270184844        1.5561156044
 S          3.5027977003        1.4776884715        0.1433373784
 O          3.9438140812        0.6207231360       -0.9320556706
 O          4.4387700900        2.5151659439        0.5310922239
 C          1.9439447195        2.2489772150       -0.2301879834
 C          1.1044463773        2.6146892740        0.8027466341
 C         -0.0698820206        3.2855300035        0.5031246637
 C         -0.3794797866        3.5842406786       -0.8149928931
 C          0.4736836973        3.2088635345       -1.8392364706
 C          1.6479332712        2.5345800989       -1.5467546706
 H          2.3278195715        2.2080267694       -2.3171089391
 H          0.2250599789        3.4269242208       -2.8654097188
 H         -1.2928959752        4.1091269571       -1.0485976852
 H         -0.7380425497        3.5733397290        1.3002455758
 H          1.3712251991        2.3649922567        1.8166686579
 H          3.9666668066        0.7920314164        2.2500021335
 H          3.5344086606       -1.2138786683        3.4437383178
 H          2.3420156372       -3.3712767897        3.5276626216
 H          0.7693549582       -3.9903976812        1.7343008077
 H         -0.3981955477       -3.4899308091       -0.1844078002
 C          0.9031284266       -2.8763873538       -1.7603460286
 C          1.5345754059       -4.2253619750       -1.9227468613
 C          0.3425698846       -3.8504496734       -2.7505170752
 H          0.4819256351       -3.6518862350       -3.8025001186
 H         -0.6062914107       -4.3104547300       -2.5150574365
 H          2.4982610792       -4.2856541134       -2.4049747665
 H          1.3936572317       -4.9448757731       -1.1303489438
 H          1.4393583821       -2.0207065496       -2.1506782259
