  62
        -98.94198055
 C          1.5350406478        1.5164672201        0.1934605746
 C          2.4235079550        0.8561901383        1.0810556930
 C          3.2376739954       -0.2176623474        0.5030800040
 C          3.0964265314       -0.5345485318       -0.7966005763
 C          3.9232871423       -1.5358169186       -1.5573395280
 C          3.4357083154       -2.9854176365       -1.4421951618
 C          3.6474330850       -3.6378236962       -0.0758457179
 H          3.4384828331       -4.7030600246       -0.1924181731
 H          4.6954473346       -3.5436197173        0.2105557110
 C          2.7551192532       -3.0767503493        1.0404552237
 H          1.9257455727       -2.5176291868        0.6012936053
 H          2.3190127472       -3.9014561118        1.6081219918
 C          3.4853988888       -2.1777765872        2.0386154969
 H          4.2365639638       -2.7602551141        2.5767561041
 H          2.7579770344       -1.8125115365        2.7682548307
 C          4.1742824114       -0.9605241405        1.4067182975
 H          5.0643439760       -1.2735344757        0.8608210075
 H          4.4761377404       -0.2811983587        2.2077598942
 H          3.9776246923       -3.5709398623       -2.1885923314
 H          2.3764465964       -3.0128692887       -1.7017743458
 H          3.8767735684       -1.2413387497       -2.6083018389
 H          4.9605372999       -1.4720458675       -1.2263706092
 O          2.1766756164        0.0663485269       -1.5949601196
 C          1.3569347212        1.0880357304       -1.1231329784
 O          0.5414927030        1.5008729824       -1.9666669779
 O          2.5391221413        1.1608781464        2.2982626722
 C          0.7354279075        2.6829854169        0.7458727412
 C         -0.7195148929        2.5532855555        0.3777382269
 C         -1.3527671306        3.3895180623       -0.5321061195
 C         -2.6852706445        3.1973002219       -0.8519636203
 C         -3.4166656732        2.1807109256       -0.2656020762
 C         -2.7925575302        1.3380747537        0.6452394778
 C         -1.4553377643        1.5285834440        0.9611601137
 H         -0.9680341079        0.8659902966        1.6664085665
 N         -3.5411369231        0.3078085289        1.2551433178
 S         -4.1170848459       -0.9379313184        0.3009419096
 O         -4.7560298382       -0.3819624076       -0.8629568094
 O         -4.9473080290       -1.7416497306        1.1684927444
 C         -2.6859304857       -1.8922483315       -0.1783507548
 C         -1.7533593112       -1.3363612618       -1.0320688541
 C         -0.6431778397       -2.0874381489       -1.3866552437
 C         -0.4882334303       -3.3727966561       -0.8900291487
 C         -1.4298974389       -3.9130683518       -0.0278503507
 C         -2.5373948033       -3.1656540750        0.3360978324
 H         -3.2969007930       -3.5435589269        1.0013106448
 H         -1.3025941828       -4.9113935972        0.3583895362
 H          0.3700347308       -3.9607074083       -1.1757842421
 H          0.0927394780       -1.6518371435       -2.0457070650
 H         -1.8899501114       -0.3351638754       -1.4110807399
 H         -3.0944301544       -0.0833212726        2.0729065632
 H         -4.4512393902        2.0122055071       -0.5151729999
 H         -3.1622780676        3.8492485956       -1.5680345227
 H         -0.7936426975        4.1754780481       -1.0123069108
 H          0.8194114916        2.5768134994        1.8402283429
 C          1.3162178973        4.0467368107        0.4000764099
 C          2.7973927960        4.2426727443        0.2827581659
 C          1.9284810533        4.3541300588       -0.9322851041
 H          1.7647808834        5.3342881464       -1.3560036468
 H          1.9626189215        3.5640091127       -1.6660608370
 H          3.2311280814        5.1426672996        0.6918390766
 H          3.4265226468        3.3701304489        0.3831091071
 H          0.7618914350        4.8501311557        0.8758191611
