  62
        -98.94757393
 C         -2.5193176251       -0.2994120657        0.0256639907
 C         -2.2219048430       -1.3206251782       -0.9065353488
 C         -1.5684147738       -2.5186008101       -0.3658075264
 C         -1.3095372304       -2.5866247935        0.9527984132
 C         -0.6439040581       -3.7454641596        1.6375536210
 C          0.8746040414       -3.5544074085        1.7377229098
 C          1.5465710496       -3.1820160829        0.4159028673
 H          1.2455112484       -2.1697723632        0.1354012799
 H          2.6234209218       -3.1475300765        0.6001385984
 C          1.2595100366       -4.1398699713       -0.7482226299
 H          2.1933996495       -4.3215240170       -1.2840785255
 H          0.9106624978       -5.0997139498       -0.3643166388
 C          0.2579337820       -3.6036559054       -1.7732972951
 H          0.5344856777       -2.5807022987       -2.0448785381
 H          0.3315350865       -4.2164366701       -2.6761277182
 C         -1.2126741350       -3.6102760112       -1.3350350588
 H         -1.4722365910       -4.5902474702       -0.9280248941
 H         -1.8271071069       -3.4323094792       -2.2226889777
 H          1.0758446024       -2.7517590237        2.4510648357
 H          1.3113760110       -4.4778552674        2.1239793380
 H         -0.8700855882       -4.6587052860        1.0898905225
 H         -1.0554779256       -3.8249957743        2.6456237263
 O         -1.6226524028       -1.5918083123        1.8216021575
 C         -2.1856910829       -0.4066313619        1.3759506151
 O         -2.3641150784        0.4450835472        2.2685688068
 O         -2.4983482916       -1.2351090440       -2.1356397885
 C         -3.1002404752        1.0104659896       -0.4795912156
 C         -2.0817203081        2.1023708593       -0.2565428864
 C         -2.3773205537        3.3525490713        0.2703742620
 C         -1.3647946463        4.2694038160        0.4998403639
 C         -0.0440955188        3.9546068083        0.2365594511
 C          0.2579725385        2.7118904921       -0.3088508529
 C         -0.7619050457        1.8173880177       -0.5802210542
 H         -0.5149480487        0.8585883765       -1.0126367400
 N          1.5814978623        2.3263545227       -0.5929150096
 S          1.9493129414        0.6999475742       -0.2854737956
 O          1.6294617681       -0.0719147521       -1.4604698228
 O          1.3415211520        0.2816102095        0.9563215100
 C          3.7209941086        0.7901188555       -0.1029924955
 C          4.5123610215        0.7710307167       -1.2358014141
 C          5.8872590193        0.8726285161       -1.0936686077
 C          6.4444761519        0.9912879365        0.1709917058
 C          5.6375957154        1.0060953628        1.2989236708
 C          4.2617443492        0.9063702065        1.1635671557
 H          3.5941165887        0.9028437940        2.0105935493
 H          6.0729515712        1.0941505214        2.2812452745
 H          7.5147276838        1.0691273228        0.2790084953
 H          6.5177806578        0.8576345243       -1.9679006348
 H          4.0333004388        0.6666336959       -2.1953046658
 H          2.2658974162        2.9450879223       -0.1787011085
 H          0.7453351783        4.6586106572        0.4520071934
 H         -1.6064785985        5.2361308436        0.9151655313
 H         -3.3962183359        3.6032657254        0.5167434733
 H         -3.2294632476        0.8742728800       -1.5642905467
 C         -4.4487387520        1.2963720705        0.1442179356
 C         -5.4679762487        2.1050349983       -0.5999620950
 C         -5.6648487069        0.6302561965       -0.4239514909
 H         -6.4290398361        0.2865901619        0.2566883860
 H         -5.5214840177       -0.0127938715       -1.2801601677
 H         -6.1026620143        2.7750536976       -0.0399976186
 H         -5.1996702479        2.4655525245       -1.5814830046
 H         -4.3927034397        1.4027327448        1.2215529435
