  62
        -98.95133715
 C         -2.3326739715       -0.1746264858        0.1084950302
 C         -1.6080868104        0.4134304032       -0.9548899597
 C         -1.5148396175        1.8779169630       -0.9339183191
 C         -2.0288702461        2.5618475236        0.1044181911
 C         -2.0293875032        4.0575010835        0.2691306617
 C         -0.7169333720        4.6233199508        0.8277812818
 C          0.4434621180        4.6737182389       -0.1664514883
 H          0.1117024589        5.1561678199       -1.0869644581
 H          1.2148605193        5.3072933672        0.2759946619
 C          1.0610349253        3.3066712878       -0.4917626788
 H          2.1514013955        3.3882600056       -0.4735836088
 H          0.7913240039        2.5843607080        0.2825808510
 C          0.6762418341        2.7428176590       -1.8587807190
 H          1.1556786222        1.7676305781       -1.9645281694
 H          1.0631248153        3.3962748486       -2.6446029188
 C         -0.8312877963        2.5647965421       -2.0794731789
 H         -1.2970301244        3.5343187030       -2.2591647486
 H         -0.9722430075        1.9404542126       -2.9656010792
 H         -0.9196223200        5.6410495710        1.1702106722
 H         -0.4217693832        4.0305869599        1.6973201516
 H         -2.2542981723        4.5328109643       -0.6864568581
 H         -2.8328696127        4.2907348349        0.9713465818
 O         -2.6521415772        1.9525961244        1.1481532610
 C         -2.8228172899        0.5790090748        1.1737609205
 O         -3.4254425607        0.1527811456        2.1820339004
 H         -0.4761300030       -0.9947673900        1.6869549898
 C         -0.2364959547       -1.8561223203        1.0805852394
 C         -1.1904589757       -2.3709848581        0.2123532193
 C         -0.8620996580       -3.4883223384       -0.5451954411
 C          0.3980702109       -4.0539169809       -0.4487466614
 C          1.3611935521       -3.5056233131        0.3789127487
 C          1.0391998243       -2.3915720128        1.1453669692
 N          1.9899119355       -1.7672157449        1.9805073093
 S          2.3768758086       -0.1765375256        1.6123478999
 O          3.4381632494        0.1738740420        2.5318025099
 O          1.1937820302        0.6419289767        1.6639830702
 C          3.0380645684       -0.2638910762       -0.0426807202
 C          4.4088140285       -0.2009103989       -0.2079059303
 C          4.9418118481       -0.3455977494       -1.4781497104
 C          4.0992970976       -0.5643910074       -2.5580633604
 C          2.7273658775       -0.6317771648       -2.3750321403
 C          2.1854412879       -0.4798053942       -1.1070919902
 H          1.1186992878       -0.5215903022       -0.9518015902
 H          2.0611936871       -0.7998102832       -3.2063300603
 H          4.5123611973       -0.6829928179       -3.5472930404
 H          6.0089659982       -0.2912572515       -1.6212422804
 H          5.0231629988       -0.0325277004        0.6618626898
 H          2.8441470145       -2.2973857366        2.0893419791
 H          2.3522655312       -3.9303761151        0.4324572985
 H          0.6395681792       -4.9224399512       -1.0420164417
 H         -1.5912478288       -3.9131860068       -1.2153237312
 C         -2.5313364244       -1.6800615354        0.1544390896
 H         -3.0599007747       -1.8860373447        1.0971848396
 C         -3.3964713854       -2.1337373233       -1.0030753605
 C         -4.2716091877       -3.3421333417       -0.8642879909
 C         -4.8825303450       -1.9744096505       -0.8998748003
 H         -5.4318462545       -1.6746402291       -1.7795784202
 H         -5.2731969042       -1.5617052300        0.0193308398
 H         -4.4067783690       -3.9830274711       -1.7224547611
 H         -4.2576883387       -3.8643509820        0.0804882589
 H         -2.9388324250       -1.9381501439       -1.9657843404
 O         -1.0785256317       -0.2495267075       -1.8855931999
