  62
        -98.93597881
 C          1.4224817664        1.0253417443        0.0391714364
 C          2.7701742860        1.4611383757        0.0767285809
 C          3.7681584818        0.4860769316        0.5476364134
 C          3.3595077483       -0.7279971180        0.9529985128
 C          4.1878397363       -1.8631918265        1.5009482784
 C          5.5239369583       -2.1638976742        0.8082274611
 C          5.5447174707       -1.9019585100       -0.7049114412
 H          5.9290631589       -2.7880631680       -1.2135105218
 H          4.5305242654       -1.7314107403       -1.0700831503
 C          6.4322598099       -0.7170130671       -1.0935979254
 H          7.3591150149       -0.7699824112       -0.5181665986
 H          6.6982728157       -0.8082722779       -2.1495665066
 C          5.8046634505        0.6634847862       -0.9032498836
 H          5.0143686087        0.8166675106       -1.6435684063
 H          6.5746226749        1.4133240537       -1.1006511917
 C          5.2009851337        0.9309838147        0.4851311139
 H          5.7998095905        0.4744818962        1.2695202382
 H          5.1875995047        2.0131191968        0.6421121414
 H          5.7482548722       -3.2148472662        0.9984789533
 H          6.3174532092       -1.5849786201        1.2787124769
 H          3.5396054464       -2.7406635261        1.4427519765
 H          4.3710576346       -1.6686359734        2.5616845156
 O          2.0461624511       -1.0880838096        0.9511154977
 C          1.0442487565       -0.2358095072        0.5015272193
 O         -0.0971612721       -0.7212109548        0.5771277791
 O          3.1262871145        2.6227027546       -0.2578583729
 C          0.3783488384        2.0028345021       -0.4693151052
 C         -0.8197859587        2.0042105260        0.4439690150
 C         -0.6754046582        2.4974301135        1.7381885673
 C         -1.7385333505        2.4889053175        2.6196772065
 C         -2.9664124540        1.9829182538        2.2309511216
 C         -3.1213724241        1.4915971353        0.9403001164
 C         -2.0543681019        1.5116872174        0.0530381923
 H         -2.1988610995        1.1190398855       -0.9387277485
 N         -4.3607574812        0.9942839186        0.5176874947
 S         -4.4951962885       -0.1961269683       -0.6406091744
 O         -4.1872902061        0.3411466783       -1.9432750203
 O         -5.8498341704       -0.6835570139       -0.4747307644
 C         -3.3529435283       -1.4970034261       -0.2171189455
 C         -2.5368212584       -2.0210304710       -1.1960264424
 C         -1.6896498854       -3.0677356463       -0.8741685478
 C         -1.6724648711       -3.5682755558        0.4166184096
 C         -2.4996456523       -3.0311663321        1.3894952602
 C         -3.3515026787       -1.9873549671        1.0722925941
 H         -4.0070333012       -1.5535129158        1.8101887092
 H         -2.4764821451       -3.4182522356        2.3958327234
 H         -1.0031274248       -4.3761900129        0.6681887260
 H         -1.0385035314       -3.4808406138       -1.6287713993
 H         -2.5722430233       -1.5950447770       -2.1861543852
 H         -5.0598718151        0.9023127342        1.2390207907
 H         -3.7977209950        1.9681636375        2.9192112283
 H         -1.6108468441        2.8724247639        3.6208173298
 H          0.2884210480        2.8794331324        2.0465727154
 H          0.8655882462        2.9897433875       -0.3978557720
 C          0.0092248531        1.8048113898       -1.9317879344
 C          1.0183040399        1.3104276818       -2.9231266464
 C         -0.1449053600        0.4462172699       -2.5439476117
 H         -0.9369033520        0.3023802528       -3.2651586937
 H          0.0307191527       -0.4100856015       -1.9112974062
 H          1.0342011032        1.7549826059       -3.9068696289
 H          1.9956892740        1.0430454892       -2.5486045835
 H         -0.6739817180        2.5724739027       -2.2837980764
