  62
        -98.92680769
 C          2.0374626072        1.4362194202       -0.2186376463
 C          1.5828090818        0.1002706018       -0.1258750120
 C          2.4903230891       -0.8594253062        0.5361980888
 C          3.6684677872       -0.4286093913        1.0164229051
 C          4.7518311249       -1.2382239039        1.6742902261
 C          5.7858568360       -1.7139799656        0.6393664882
 C          5.4543362067       -3.0418415439       -0.0403182217
 H          6.1956809616       -3.1976782932       -0.8274495066
 H          5.5685547464       -3.8526706474        0.6822080404
 C          4.0560136904       -3.1272879512       -0.6565605824
 H          3.8301756203       -2.1976567179       -1.1819671446
 H          4.0662980424       -3.9260667055       -1.4005464484
 C          2.9587472536       -3.4220751464        0.3770226224
 H          3.4218481238       -3.7189334073        1.3175525045
 H          2.3655917497       -4.2760410809        0.0431980103
 C          1.9752524529       -2.2709067881        0.6245027987
 H          1.1713007621       -2.3166133883       -0.1166067201
 H          1.5013812047       -2.4070363072        1.6029185626
 H          6.7529748613       -1.8200371568        1.1350633475
 H          5.8903110285       -0.9295837611       -0.1147315711
 H          4.3303864955       -2.0744331058        2.2241463865
 H          5.2495154164       -0.5703367214        2.3806919445
 O          4.0658872581        0.8703692180        0.9122038260
 C          3.2729721839        1.8237923763        0.3080462510
 O          3.7676150918        2.9695826292        0.2975387999
 O          0.4794504524       -0.3025271728       -0.5737149686
 C          1.2077420949        2.5504118413       -0.8516353459
 C         -0.1354262707        2.6026138520       -0.1664129159
 C         -0.2183332480        3.3522568344        1.0065286901
 C         -1.3729500297        3.3776033261        1.7657048990
 C         -2.4820081510        2.6489946049        1.3753152640
 C         -2.4125151569        1.8945536148        0.2137813171
 C         -1.2553600590        1.8828160807       -0.5554345000
 H         -1.2341397053        1.2645050455       -1.4356705570
 N         -3.5395485849        1.1420345294       -0.1700929225
 S         -4.0551682701       -0.0849063835        0.8642860915
 O         -5.4905776728        0.0351989780        0.9946701861
 O         -3.3080320383       -0.0153525689        2.0960825904
 C         -3.6846115244       -1.5994374391       -0.0076273314
 C         -4.7217009943       -2.4384807608       -0.3678001712
 C         -4.4321773832       -3.6153104627       -1.0395853722
 C         -3.1159401680       -3.9309880400       -1.3403909171
 C         -2.0876948411       -3.0757442415       -0.9750977497
 C         -2.3676569123       -1.8966053203       -0.3015815317
 H         -1.5771602347       -1.2167588891       -0.0205386304
 H         -1.0627905518       -3.3116828104       -1.2139789279
 H         -2.8885828636       -4.8465939631       -1.8633871469
 H         -5.2313943383       -4.2797452668       -1.3260938165
 H         -5.7284049112       -2.1491412135       -0.1135997410
 H         -3.4831521330        0.7957310685       -1.1177221451
 H         -3.3873957939        2.6367819492        1.9610143665
 H         -1.4081119776        3.9656251005        2.6706511155
 H          0.6510630613        3.9081479096        1.3313839251
 H          1.7350250597        3.4730868979       -0.5651428307
 C          1.2882404020        2.5094862557       -2.3729548426
 C          0.6905329540        1.4538520219       -3.2524921323
 C          0.1510595149        2.8523291912       -3.2871457062
 H          0.3648365908        3.4578626897       -4.1553984303
 H         -0.8125172072        3.0489024722       -2.8443563641
 H          1.2816287442        1.1160769558       -4.0922905113
 H          0.1204373178        0.6640891380       -2.7923657751
 H          2.2691159350        2.8596807054       -2.6862112399
