  62
        -98.94827317
 C          1.1881487632        1.2184723720       -0.0228428234
 C          1.9136433233        0.6430320767        1.0471815002
 C          2.5449384810       -0.6547256827        0.7724261622
 C          2.3921934046       -1.2169803344       -0.4404300156
 C          3.0165774284       -2.5124828487       -0.8695638991
 C          4.3876321893       -2.2806425634       -1.5199845564
 C          5.3128603466       -1.3781658299       -0.7039383292
 H          6.2602276668       -1.3106254291       -1.2428863093
 H          4.8899546373       -0.3716045501       -0.6687236964
 C          5.5739962759       -1.8660052847        0.7279444797
 H          6.6413978827       -1.7761080682        0.9402052250
 H          5.3145769952       -2.9218506059        0.8137938975
 C          4.8377270894       -1.0756243538        1.8114628800
 H          5.2554710120       -1.3568996016        2.7818966446
 H          5.0207613486       -0.0067547624        1.6745563715
 C          3.3215533101       -1.2978443980        1.8861833853
 H          3.1061684144       -2.3675932325        1.9386007155
 H          2.9602576880       -0.8344406917        2.8094630269
 H          4.2336490711       -1.8181341417       -2.4974197736
 H          4.8647111973       -3.2502213733       -1.6732732445
 H          3.1176549797       -3.1636197920       -0.0033044984
 H          2.3560874354       -2.9918739421       -1.5940515894
 O          1.6783787686       -0.6399640374       -1.4399007444
 C          1.0486889790        0.5854916039       -1.2571492224
 O          0.4134295956        0.9867370783       -2.2486636398
 H         -1.0310034106        0.7630727869        1.4397498805
 C         -1.6199903481        1.3815966733        0.7774978909
 C         -0.9989187118        2.3797067381        0.0346746460
 C         -1.7793800864        3.1747716044       -0.7939874305
 C         -3.1441969066        2.9626019929       -0.8842278253
 C         -3.7554722355        1.9600717887       -0.1551172165
 C         -2.9854512927        1.1649241290        0.6872768733
 N         -3.5874180898        0.1603758877        1.4667076739
 S         -2.9221468905       -1.3702650475        1.5342409624
 O         -3.9622066680       -2.1838489687        2.1260807721
 O         -1.6621544746       -1.3420228916        2.2316967167
 C         -2.6868890660       -1.8393718913       -0.1677027610
 C         -1.4398178217       -1.7030631134       -0.7395270161
 C         -1.2793972913       -2.0050434693       -2.0821896904
 C         -2.3669750464       -2.4370592845       -2.8248347005
 C         -3.6140181631       -2.5776902804       -2.2338936898
 C         -3.7802001729       -2.2713727012       -0.8934854585
 H         -4.7294212238       -2.3755723232       -0.3933099376
 H         -4.4550986742       -2.9194025677       -2.8153827456
 H         -2.2380870632       -2.6660851455       -3.8709125627
 H         -0.3105746751       -1.8783306000       -2.5388848405
 H         -0.6176216410       -1.3641631585       -0.1281821533
 H         -4.5896063796        0.1000072627        1.3546947847
 H         -4.8196316409        1.7950980772       -0.2276169361
 H         -3.7386966994        3.5843857587       -1.5359651349
 H         -1.3197515211        3.9584692092       -1.3727651300
 C          0.4926076302        2.5502970412        0.1907792526
 H          0.6927810294        2.8176567448        1.2394201153
 C          1.0870296215        3.6159373870       -0.7055774440
 C          1.0352765732        5.0570323540       -0.2974026084
 C          2.3369574432        4.3156297372       -0.2661066254
 H          3.0848487473        4.5509463572       -1.0084473391
 H          2.7480711978        4.0403696157        0.6944987350
 H          0.8922697258        5.8055751017       -1.0619139120
 H          0.5641610355        5.2924294787        0.6449510083
 H          0.9937318651        3.3758811782       -1.7585578043
 O          2.0272494999        1.1893732721        2.1784248392
