  62
        -98.94419564
 C          1.1373853832        1.2769589545        0.7887721314
 C          2.2800268754        1.4226028335       -0.0350152662
 C          3.2985690121        0.3679452940        0.0912284626
 C          3.0910777478       -0.6608395915        0.9321747151
 C          4.0419999563       -1.8050263138        1.1345351884
 C          3.7528072723       -2.9703166817        0.1783313121
 C          3.5449846129       -2.5451991302       -1.2743075141
 H          2.6534018656       -1.9172932105       -1.3376583558
 H          3.3477607046       -3.4501534928       -1.8530184253
 C          4.7366925923       -1.7988260814       -1.8897432744
 H          4.9227102971       -2.1974934409       -2.8893382455
 H          5.6338237122       -1.9814281058       -1.2967345072
 C          4.5321047080       -0.2909057378       -2.0426491674
 H          3.5881158180       -0.0975070718       -2.5581793686
 H          5.3352816076        0.0984118708       -2.6740783756
 C          4.5429336546        0.5163273438       -0.7386209221
 H          4.6004034852        1.5757460404       -1.0047889156
 H          5.4297633647        0.2610534822       -0.1549752141
 H          2.8490867242       -3.4780720493        0.5182153371
 H          4.5817778813       -3.6780723057        0.2371110854
 H          5.0593856694       -1.4470365915        0.9862332990
 H          3.9392398789       -2.1561412797        2.1626952199
 O          1.9662669538       -0.7845349907        1.6829495727
 C          0.9701697597        0.1752069731        1.6331876610
 O          0.0018499977       -0.0538335958        2.3847520479
 H         -2.2016161665        0.7775979961        0.6258240415
 C         -1.9447748464        1.1955141204       -0.3365081938
 C         -0.8453917972        2.0372396709       -0.4461058738
 C         -0.5310393520        2.5727109455       -1.6902033408
 C         -1.3035150976        2.2648889888       -2.7956358416
 C         -2.3929149877        1.4191574581       -2.6867133984
 C         -2.7152184449        0.8793727878       -1.4459047458
 N         -3.8183537697        0.0302431022       -1.3085427982
 S         -4.0124483094       -1.0027364883       -0.0221849343
 O         -5.0175639248       -1.9401076441       -0.4802728411
 O         -4.3540247423       -0.2607589776        1.1660476064
 C         -2.4739722579       -1.8755968824        0.2125560757
 C         -2.1290457000       -2.2452087130        1.4958831716
 C         -0.9811392441       -2.9934375710        1.6957332438
 C         -0.1998496301       -3.3541144955        0.6110271173
 C         -0.5514522076       -2.9662415016       -0.6721473172
 C         -1.7032995003       -2.2247699445       -0.8783295692
 H         -1.9974316786       -1.9162597053       -1.8685243357
 H          0.0680325087       -3.2402546693       -1.5116040986
 H          0.6913043834       -3.9410162533        0.7690252235
 H         -0.6963324808       -3.2795011393        2.6952198805
 H         -2.7540533439       -1.9289099428        2.3154493092
 H         -4.2426067059       -0.3008187779       -2.1609868799
 H         -2.9926553741        1.1785060699       -3.5509500729
 H         -1.0504331712        2.6845727386       -3.7574403120
 H          0.3355536483        3.2052991077       -1.7909766806
 C         -0.0029382425        2.2852191721        0.7812188142
 H         -0.6189523622        2.0446359586        1.6584834421
 C          0.4663746690        3.7199238328        0.9045352349
 C         -0.5305465481        4.7751595977        1.2745931314
 C          0.5190824693        4.3568165791        2.2590551041
 H          1.3259663293        5.0407745539        2.4758009695
 H          0.2145321156        3.7594451856        3.1065489527
 H         -1.5476812334        4.4589682835        1.4535184375
 H         -0.4469462098        5.7483332508        0.8157996563
 H          1.2476421500        3.9855498271        0.2053568614
 O          2.4681648634        2.3806527461       -0.8289050159
