  62
        -98.94094441
 C          1.7282905910        1.0751968200        0.0017319325
 C          2.1484655849       -0.1339684165       -0.6057712148
 C          3.6017629269       -0.2842226975       -0.7937579787
 C          4.4300687416        0.6962682275       -0.3934576592
 C          5.9274959958        0.6474552657       -0.4797879918
 C          6.5388887870        0.0690275978        0.8040535246
 C          5.8904013830       -1.2370269553        1.2630009193
 H          4.8572026014       -1.0388408585        1.5573425933
 H          6.4218857388       -1.5670724211        2.1581998956
 C          5.9100438044       -2.3580758821        0.2145665026
 H          6.2111682182       -3.2879930394        0.7015589777
 H          6.6554890760       -2.1373987061       -0.5503747430
 C          4.5606029557       -2.6237571862       -0.4556497999
 H          3.7893814202       -2.7534393065        0.3080815728
 H          4.6344877594       -3.5646169463       -1.0077223495
 C          4.0827362518       -1.5514174786       -1.4429178815
 H          3.2216866951       -1.9580976222       -1.9819080366
 H          4.8720471459       -1.3391184628       -2.1672068582
 H          6.4272444278        0.8057775837        1.6028842207
 H          7.6054388151       -0.0914354007        0.6364721647
 H          6.2173727845        0.0435579125       -1.3374545007
 H          6.2971161770        1.6645027316       -0.6213325899
 O          3.9907747497        1.8388682470        0.1929473603
 C          2.6407967142        2.0471166342        0.4222920764
 O          2.3819030681        3.1186386995        1.0048209529
 H         -1.7350638206       -0.2155344879       -0.8029096790
 C         -1.4332170843       -0.5192214621        0.1846251969
 C         -0.4176476710        0.1489896772        0.8486976006
 C         -0.0128043553       -0.3209887879        2.0958006154
 C         -0.6031541863       -1.4364513708        2.6563993501
 C         -1.6272947319       -2.0936693526        1.9967479017
 C         -2.0374336855       -1.6334697861        0.7517785364
 N         -3.0702312568       -2.2769001834        0.0581912021
 S         -4.1084608095       -1.4114562226       -0.9157851548
 O         -5.3134606375       -2.2135418352       -0.9545997674
 O         -3.5052313107       -1.1309257566       -2.1939345487
 C         -4.4245121699        0.1145739652       -0.0443609964
 C         -4.2249180817        1.3191677075       -0.6868082715
 C         -4.4718647909        2.4970932944        0.0004889722
 C         -4.9103061018        2.4497310629        1.3145055603
 C         -5.1124557906        1.2314781479        1.9449506479
 C         -4.8699923687        0.0513610961        1.2611654997
 H         -5.0257343135       -0.9101171177        1.7223278169
 H         -5.4562766485        1.1984170969        2.9661583794
 H         -5.0963342182        3.3679570378        1.8489123521
 H         -4.3174484220        3.4454223599       -0.4896143878
 H         -3.8770890809        1.3101864186       -1.7076861069
 H         -3.5328720507       -3.0222927351        0.5556535668
 H         -2.0924741287       -2.9644496924        2.4329927323
 H         -0.2704368972       -1.7950331520        3.6189124360
 H          0.7846741045        0.1956338125        2.6130927140
 C          0.2633452140        1.3683910964        0.2794438197
 H          0.2745733266        2.1423620979        1.0647645204
 C         -0.4888391822        1.9632027245       -0.9014363861
 C          0.2024820387        2.8312398571       -1.9085277281
 C         -0.2955143208        1.4749410854       -2.3041481011
 H         -1.1601010454        1.4049313142       -2.9489608487
 H          0.4233174117        0.6869353474       -2.4651049223
 H          1.2680783281        2.9733534321       -1.8009168878
 H         -0.3180949992        3.7011481811       -2.2795245714
 H         -1.4967213095        2.2577296054       -0.6240640752
 O          1.3690597077       -1.0490929857       -0.9762840116
