  62
        -98.94484435
 C         -2.4438778599       -1.1050435971       -0.0425899274
 C         -3.0755453184       -0.3002818394        0.9432114383
 C         -3.6006860237        0.9916126248        0.4936797458
 C         -3.4832233598        1.3423657427       -0.7993398618
 C         -3.9640273182        2.6266796630       -1.4174548127
 C         -2.9787161538        3.7930046313       -1.2582343514
 C         -2.8893872687        4.3807927960        0.1508396796
 H         -2.3435975098        5.3227991019        0.0689451857
 H         -3.8921212081        4.6142395024        0.5104274908
 C         -2.1703943061        3.4835562664        1.1682305949
 H         -1.5806782259        2.7301259411        0.6389581121
 H         -1.4655261868        4.0847445186        1.7472769024
 C         -3.0954935049        2.7860436636        2.1662189579
 H         -2.4840272699        2.1454349683        2.8065803658
 H         -3.5800381003        3.5332705232        2.7985799309
 C         -4.1811990548        1.9138574641        1.5226983316
 H         -4.9538276020        2.5405699972        1.0782669130
 H         -4.6332509873        1.2978185963        2.3037426427
 H         -1.9873446988        3.4593635062       -1.5763103318
 H         -3.2974251378        4.5848867250       -1.9402353338
 H         -4.9292555973        2.9020856205       -0.9916285094
 H         -4.0958096738        2.4297853673       -2.4835832858
 O         -2.9064281889        0.5305531766       -1.7222665962
 C         -2.3413357422       -0.6864368589       -1.3690125383
 O         -1.8086546721       -1.2765417029       -2.3327256378
 O         -3.1959177640       -0.6523551710        2.1463575818
 C         -1.8215383364       -2.4047545378        0.4457803065
 C         -0.3518904610       -2.1648365623        0.6960249678
 C          0.1623107501       -2.1363335248        1.9871295067
 C          1.4937654439       -1.8307315319        2.2102956841
 C          2.3341012412       -1.5298067649        1.1527930745
 C          1.8262847240       -1.5501569956       -0.1390834424
 C          0.5015173876       -1.8857492231       -0.3625879655
 H          0.1137849781       -1.8782328625       -1.3707836826
 N          2.6648478416       -1.1734854382       -1.2193075229
 S          2.8912654574        0.4982378970       -1.2932269386
 O          1.7234189491        1.2123762203       -0.8242309488
 O          3.3141227712        0.7783086083       -2.6483776335
 C          4.2561520843        0.7664783940       -0.1830490804
 C          5.4836086740        0.2296648238       -0.5202692111
 C          6.5535575982        0.4157736509        0.3403081496
 C          6.3785095484        1.1316772499        1.5155917033
 C          5.1404138417        1.6663225175        1.8378431128
 C          4.0654383650        1.4829795470        0.9817466518
 H          3.0824947267        1.8735133058        1.1919942435
 H          5.0060215022        2.2224611768        2.7516415691
 H          7.2121604452        1.2741859898        2.1849158541
 H          7.5180114545        0.0022469052        0.0933801956
 H          5.5731801511       -0.3150105664       -1.4452577462
 H          2.2896833539       -1.4740276343       -2.1099659389
 H          3.3685669998       -1.2762450131        1.3182575149
 H          1.8781878475       -1.8142406987        3.2185606366
 H         -0.4981713659       -2.3316783417        2.8193766439
 H         -2.2994136227       -2.6069908123        1.4136779299
 C         -2.0603506755       -3.5906126082       -0.4651752569
 C         -1.9070696841       -4.9727697045        0.0932989278
 C         -3.2689705261       -4.4486601375       -0.2473560125
 H         -3.7774006004       -4.8481275156       -1.1119248957
 H         -3.9312291844       -4.1822279975        0.5633637179
 H         -1.4776174746       -5.7368170845       -0.5361434921
 H         -1.6460810849       -5.0631462842        1.1367596382
 H         -1.7521777033       -3.4223515312       -1.4886193212
