  62
        -98.93557304
 C          2.1265697007        0.3538167247        0.8495124563
 C          2.5203226517        0.2019569664       -0.5037870853
 C          3.3749679881       -0.9613068603       -0.7885038644
 C          3.6626857497       -1.8424307504        0.1849393902
 C          4.5158942582       -3.0736495649        0.0454864158
 C          6.0208690697       -2.8025490278        0.1794798346
 C          6.6619904712       -2.0850474945       -1.0092367960
 H          6.4093889999       -2.6122410817       -1.9297553837
 H          7.7438141306       -2.1557420844       -0.8797772739
 C          6.2775910864       -0.6045276576       -1.1401151398
 H          7.1742739233       -0.0109472125       -1.3319533068
 H          5.8581210065       -0.2514665359       -0.1950807814
 C          5.2866721740       -0.3039544859       -2.2649773683
 H          5.7471703977       -0.5302489256       -3.2291756717
 H          5.0590662271        0.7650907801       -2.2450449007
 C          3.9627032575       -1.0730458415       -2.1627807811
 H          4.1134195426       -2.1186690237       -2.4299926723
 H          3.2518298222       -0.6297731681       -2.8645858735
 H          6.5161315192       -3.7683750556        0.3030243687
 H          6.1918608407       -2.2232191470        1.0899013561
 H          4.2155987259       -3.7531048564        0.8460554941
 H          4.3148983447       -3.5540186702       -0.9124033897
 O          3.1744659160       -1.7168903708        1.4483563568
 C          2.4194606125       -0.6142732547        1.8136608228
 O          2.0577744761       -0.6191966823        3.0081636710
 H         -0.7765424077       -0.0334104607        0.9556315215
 C         -0.8571559946        0.8519866157        0.3357712819
 C          0.1571884039        1.8007485436        0.3857048677
 C          0.0465748414        2.9331484129       -0.4091738369
 C         -1.0471277162        3.0987503402       -1.2407665827
 C         -2.0501083838        2.1490532511       -1.2947036742
 C         -1.9524026671        1.0142411991       -0.4996560273
 N         -2.9654646984        0.0363752541       -0.5553789824
 S         -4.5581679822        0.6035081963       -0.5167632142
 O         -4.9378220821        0.9887965572       -1.8528076570
 O         -4.6943230276        1.6255854787        0.4969506164
 C         -5.4471116020       -0.8652059477       -0.0393163618
 C         -5.7420044662       -1.0694615237        1.2953831300
 C         -6.4203258529       -2.2207046984        1.6634073996
 C         -6.7880756764       -3.1439248137        0.6960845452
 C         -6.4849559288       -2.9248276993       -0.6395637403
 C         -5.8079723523       -1.7752705831       -1.0146609113
 H         -5.5607792497       -1.5578234444       -2.0405947912
 H         -6.7754229237       -3.6437048936       -1.3885876595
 H         -7.3172510258       -4.0381902613        0.9852360510
 H         -6.6601045666       -2.3918719528        2.7005304678
 H         -5.4464275921       -0.3199666563        2.0122212036
 H         -2.8257500861       -0.6921252290        0.1316031437
 H         -2.9085322468        2.2714181894       -1.9355517034
 H         -1.1187127920        3.9803290416       -1.8601514880
 H          0.8287292896        3.6742300092       -0.3967535196
 C          1.3145487220        1.5480946983        1.3203632376
 H          0.8951203224        1.2400975966        2.2925073612
 C          2.1495079080        2.7920881189        1.5879518882
 C          3.5457963216        2.6748504711        2.1206924339
 C          3.3138684786        3.1871182278        0.7326465860
 H          3.4741605534        4.2383522136        0.5422286331
 H          3.5635201920        2.5511643702       -0.1015135844
 H          3.9514587628        1.6803782228        2.2399563507
 H          3.8656538206        3.3699693351        2.8822979192
 H          1.5472719367        3.5993756604        1.9937881398
 O          2.1935182012        0.9838376527       -1.4317442373
