  62
        -98.93958383
 C         -2.4626573187       -1.0301422346        0.5234334091
 C         -2.3504559734        0.2809142318       -0.0035551219
 C         -3.4940640449        1.1693811995        0.2546768443
 C         -4.5336025085        0.7373194317        0.9891978266
 C         -5.7604562761        1.5315362340        1.3466070617
 C         -6.8423366568        1.5304069832        0.2578169629
 C         -6.5217456777        2.3700616247       -0.9794930107
 H         -7.4452715676        2.4565136767       -1.5554454319
 H         -6.2357814913        3.3759021617       -0.6703612384
 C         -5.4311597952        1.7775947164       -1.8829461095
 H         -5.2928414225        0.7209177900       -1.6421380290
 H         -5.7548609765        1.8272122206       -2.9250881260
 C         -4.0799202295        2.4870880830       -1.7937270626
 H         -3.3751214667        1.9658682744       -2.4468095138
 H         -4.1797729667        3.5118935030       -2.1580738183
 C         -3.4792490316        2.5262223739       -0.3823556988
 H         -4.0183879589        3.2433178758        0.2361280850
 H         -2.4365590034        2.8435810649       -0.4611020141
 H         -7.0350599614        0.4977142102       -0.0424092249
 H         -7.7577990121        1.9210760805        0.7080674524
 H         -5.4778015110        2.5585112375        1.5795799179
 H         -6.1764625224        1.0725342962        2.2461025501
 O         -4.5768728213       -0.5111839963        1.5267205395
 C         -3.5569623376       -1.4205437252        1.3007029691
 O         -3.7332603991       -2.5280514791        1.8473889366
 O         -1.3637365627        0.7040196875       -0.6574097912
 C         -1.3755701749       -2.0736080860        0.3258343050
 C         -0.0234246358       -1.4721174343        0.6179104172
 C          0.2897961354       -1.1389525995        1.9327091297
 C          1.5114440461       -0.5754328745        2.2468899020
 C          2.4460869426       -0.3273154659        1.2567985014
 C          2.1439507498       -0.6553260766       -0.0573750605
 C          0.9193251955       -1.2334852905       -0.3684440232
 H          0.6891493781       -1.4635232493       -1.3972187627
 N          3.0725839426       -0.3803484310       -1.0717570483
 S          4.6907238796       -0.7346717488       -0.8443842166
 O          5.2387917992       -0.8643778392       -2.1771734941
 O          4.8683936333       -1.8688144807        0.0330112888
 C          5.3544082603        0.7337987790       -0.0866127797
 C          5.1112665209        1.9491800808       -0.6957523207
 C          5.6328070962        3.0993945518       -0.1256921767
 C          6.3874429432        3.0154170556        1.0350129171
 C          6.6253497502        1.7873766588        1.6327244981
 C          6.1053866618        0.6330442701        1.0679978672
 H          6.2594833592       -0.3423781410        1.5014937950
 H          7.2121104824        1.7242081318        2.5350878476
 H          6.7918802749        3.9126702365        1.4763098857
 H          5.4485380557        4.0562947985       -0.5870616134
 H          4.5207554400        1.9735967333       -1.5964523836
 H          2.7576998411       -0.6163209231       -2.0006813985
 H          3.3992128800        0.1165190354        1.4938023673
 H          1.7384033149       -0.3215458758        3.2713580966
 H         -0.4444356759       -1.3229965577        2.7057273487
 H         -1.5740579718       -2.8382483372        1.0946585109
 C         -1.4367780682       -2.7882239529       -1.0163894143
 C         -2.7566979781       -3.0935873999       -1.6577482295
 C         -1.8303114860       -2.0991410513       -2.2870018287
 H         -1.3232432571       -2.3801258821       -3.1990375444
 H         -2.0831368748       -1.0522155691       -2.2341754358
 H         -2.8872946943       -4.0531619453       -2.1349644175
 H         -3.6454913877       -2.7271867469       -1.1646423995
 H         -0.6748805819       -3.5584941019       -1.0959141839
