  62
        -98.93580439
 C         -1.8154772267        0.6777686220        0.8599225141
 C         -2.2045759067        0.0216329559       -0.3321244114
 C         -3.6490963574       -0.0018469816       -0.6065356090
 C         -4.5007333442        0.5928623350        0.2482289422
 C         -5.9938846451        0.7165629085        0.0936965847
 C         -6.7963900136       -0.5982870869        0.1281643493
 C         -7.0761267192       -1.2045971522       -1.2525306589
 H         -8.0953122527       -1.5963247849       -1.2638181427
 H         -7.0382353030       -0.4102639164       -1.9990156675
 C         -6.1523408457       -2.3499571809       -1.6774353910
 H         -6.4586766101       -3.2639856163       -1.1635492645
 H         -6.2927188060       -2.5126250510       -2.7482494751
 C         -4.6632381206       -2.1448199701       -1.3985121371
 H         -4.4666431165       -2.2843281645       -0.3329316649
 H         -4.1082415130       -2.9273126584       -1.9195748956
 C         -4.1146866848       -0.7653473435       -1.8121313581
 H         -4.8679904702       -0.1992474941       -2.3580358100
 H         -3.2418395049       -0.8887001146       -2.4563965015
 H         -6.2857031323       -1.3194117970        0.7656994360
 H         -7.7536399037       -0.3710428913        0.6001528277
 H         -6.2063954512        1.2458149776       -0.8381112289
 H         -6.3184565551        1.3532011838        0.9193937036
 O         -4.0807519903        1.2197150410        1.3823720118
 C         -2.7387088401        1.2709646044        1.7195956165
 O         -2.4975310740        1.8716520538        2.7870744860
 O         -1.3906864761       -0.5078612886       -1.1319684810
 C         -0.3473418167        0.7527426650        1.2340375459
 C          0.4494323678        1.4280407405        0.1436870018
 C         -0.0768322453        2.5499824396       -0.4914920788
 C          0.6284612978        3.1943642760       -1.4885463628
 C          1.8852971504        2.7490040768       -1.8584590196
 C          2.4288440921        1.6426051080       -1.2190110678
 C          1.7096759336        0.9862842165       -0.2288722505
 H          2.1498402846        0.1296166156        0.2535898527
 N          3.6974622379        1.1617654543       -1.5743818917
 S          4.7536571585        0.6331975090       -0.3901849677
 O          4.5840236721        1.3657434717        0.8428619861
 O          6.0621588673        0.7214115231       -1.0040048753
 C          4.3559105749       -1.0848810183       -0.1470266035
 C          4.4714712237       -1.6216326114        1.1199086948
 C          4.2142088694       -2.9714781280        1.3035666206
 C          3.8472456732       -3.7568769818        0.2219089088
 C          3.7371245843       -3.2024813130       -1.0443746983
 C          3.9979046271       -1.8550367189       -1.2356911072
 H          3.9185688909       -1.3929744614       -2.2054055133
 H          3.4480081371       -3.8156574708       -1.8827494128
 H          3.6445751276       -4.8063010982        0.3671459643
 H          4.2996637066       -3.4036598534        2.2881349781
 H          4.7473971293       -0.9719525498        1.9352867508
 H          4.1722538930        1.6974861718       -2.2863121373
 H          2.4396290890        3.2532347941       -2.6355198518
 H          0.2003655801        4.0565237247       -1.9777856024
 H         -1.0545794255        2.9070211535       -0.1968158061
 H         -0.2923056400        1.3867948833        2.1319670184
 C          0.1647954877       -0.6300757768        1.5830425017
 C          1.2516805136       -0.8058226878        2.5990757587
 C         -0.1557591921       -1.1976115395        2.9320446516
 H         -0.3949668164       -2.2475828378        3.0070596880
 H         -0.7172598210       -0.5715064802        3.6105698818
 H          1.9768774079       -1.5901240677        2.4428112913
 H          1.6572713206        0.0834704203        3.0583381447
 H          0.1417628862       -1.3056601079        0.7355054235
