  62
        -98.93777414
 C         -1.9835613105       -0.9287503215        0.0043415129
 C         -2.3100406235        0.0268101858        0.9913109523
 C         -2.5814270884        1.3953712776        0.5224518992
 C         -2.4860352378        1.6737061391       -0.7912629175
 C         -2.6389659191        2.9798705694       -1.5427681630
 C         -3.3301926219        4.1786480629       -0.8974273085
 C         -4.8179009240        3.9842912515       -0.6082427434
 H         -5.1790560680        4.8690404944       -0.0794562331
 H         -5.3525310598        3.9222914891       -1.5592349803
 C         -5.1740775617        2.7414322320        0.2035550250
 H         -6.2569973420        2.7393197937        0.3537707272
 H         -4.9268167186        1.8453568544       -0.3693268303
 C         -4.5145279896        2.6467612155        1.5783700027
 H         -4.9847793684        1.8160804040        2.1112553255
 H         -4.7084822927        3.5599214340        2.1441240651
 C         -2.9968680752        2.3868867592        1.5706553593
 H         -2.7221276223        1.9468672590        2.5340665926
 H         -2.4332505549        3.3114378296        1.4656448430
 H         -3.2364861864        5.0069637348       -1.6050823747
 H         -2.8035953192        4.4750384798        0.0050320337
 H         -1.6217249088        3.2759284074       -1.8236564000
 H         -3.1559375194        2.7264308742       -2.4737351888
 O         -2.1521292173        0.7188297346       -1.7081065951
 C         -1.8889632168       -0.5903904543       -1.3438614321
 O         -1.5976603606       -1.3399661275       -2.2958067195
 O         -2.3670537887       -0.2497066976        2.2223602691
 C         -1.6652389110       -2.3496886736        0.4236646825
 C         -0.2650964805       -2.7345013234        0.0087286695
 C          0.0787231934       -4.0307592386       -0.3550644024
 C          1.3828309594       -4.3379354918       -0.7029947503
 C          2.3663109367       -3.3671020395       -0.6990610954
 C          2.0315332711       -2.0643916721       -0.3420554529
 C          0.7299197172       -1.7656169542        0.0236954980
 H          0.4857954211       -0.7536078123        0.3138232889
 N          2.9982395067       -1.0474027706       -0.3857191536
 S          2.7687036405        0.4068181983        0.4239540750
 O          2.5036615711        0.1727820566        1.8272010481
 O          1.7963216092        1.1966067074       -0.2910637353
 C          4.3905484354        1.1194348347        0.2215289531
 C          4.7136377351        1.6881992517       -0.9961427338
 C          5.9817265395        2.2183267113       -1.1728889693
 C          6.9012053037        2.1705870411       -0.1352860816
 C          6.5623961997        1.5980654502        1.0813567664
 C          5.2957598936        1.0652545637        1.2643467347
 H          4.9838064877        0.6175334651        2.1941406573
 H          7.2781038130        1.5647296300        1.8868064860
 H          7.8871415029        2.5845453151       -0.2755950477
 H          6.2473635123        2.6662250352       -2.1168181398
 H          3.9627126894        1.7092681351       -1.7689615868
 H          3.9482769799       -1.3842396430       -0.3217009317
 H          3.3803899002       -3.6061848882       -0.9795966734
 H          1.6360637291       -5.3492551028       -0.9827734622
 H         -0.6760758818       -4.8000121319       -0.3677688589
 H         -1.7036832229       -2.3458616415        1.5245415331
 C         -2.7223654511       -3.3032149027       -0.0976204419
 C         -3.1312590550       -4.5029840270        0.7023241380
 C         -4.0600317247       -3.3342023879        0.5772378793
 H         -4.9442936672       -3.4359437584       -0.0337012927
 H         -4.1933914520       -2.6908094844        1.4349492164
 H         -3.3817904080       -5.4117281953        0.1759962993
 H         -2.6449246011       -4.6602229212        1.6533118078
 H         -2.7043622064       -3.3864020692       -1.1786474791
