  62
        -98.93250089
 C         -2.2901398811       -1.2092904359        0.3700910071
 C         -2.5973531304       -0.2084578871       -0.5835174582
 C         -3.6061781293        0.7865400580       -0.1753036381
 C         -4.1400498304        0.7228661898        1.0569612980
 C         -5.2224502257        1.6179412352        1.5896817223
 C         -6.5895795634        1.1842933678        1.0231194047
 C         -7.2449153378        2.2124399652        0.1006855494
 H         -8.0789648475        1.7169814915       -0.4008622979
 H         -7.6586193102        3.0207122835        0.7073082828
 C         -6.3306376262        2.8410931062       -0.9553790951
 H         -5.7279814941        3.6274566264       -0.4984318873
 H         -6.9783836178        3.3306481862       -1.6857418301
 C         -5.3967167176        1.8750960029       -1.6959044258
 H         -5.3533791727        2.1806960634       -2.7433906181
 H         -5.7986329136        0.8617599068       -1.6780636437
 C         -3.9475674345        1.8580463712       -1.1742858688
 H         -3.2752619612        1.6781900025       -2.0187677740
 H         -3.6971377668        2.8384844153       -0.7593991127
 H         -7.2753927466        0.9774068275        1.8459388123
 H         -6.4540124088        0.2442005997        0.4841941042
 H         -5.0089434876        2.6515054929        1.3264774430
 H         -5.2144742525        1.5246262148        2.6757790759
 O         -3.8003296233       -0.2369334259        1.9556253497
 C         -2.8833640545       -1.2219110316        1.6363203095
 O         -2.6823059400       -2.0472061149        2.5488998904
 O         -2.0642049727       -0.1240128713       -1.7215249154
 C         -1.3004580440       -2.3346480931        0.1113672691
 C          0.1128346176       -1.9032469411        0.4087704615
 C          0.9431249462       -2.6738985458        1.2136366589
 C          2.2448476061       -2.2764976055        1.4655928006
 C          2.7430100860       -1.1047967506        0.9244582123
 C          1.9212819153       -0.3274437511        0.1186450920
 C          0.6178456702       -0.7299010949       -0.1341374470
 H         -0.0128184175       -0.1297408001       -0.7735191276
 N          2.4101003853        0.8729339438       -0.4269768774
 S          3.8666332014        0.8169122598       -1.2609096407
 O          3.8318501293        1.9425088879       -2.1685116026
 O          4.0854462451       -0.4817054509       -1.8550303863
 C          5.0871407927        1.1271816959       -0.0022390109
 C          4.9436018543        2.2581369599        0.7776018271
 C          5.8907660738        2.5217399981        1.7540570483
 C          6.9610185034        1.6571327485        1.9306308700
 C          7.0927188652        0.5278765947        1.1371327116
 C          6.1477577379        0.2575175136        0.1593798001
 H          6.2051126932       -0.6113430524       -0.4767474248
 H          7.9255185572       -0.1426757057        1.2758466959
 H          7.6967455870        1.8652345699        2.6913691859
 H          5.7915479589        3.3987716175        2.3732908900
 H          4.0989980586        2.9047332029        0.6065337286
 H          1.7162289376        1.3782370851       -0.9598149967
 H          3.7557706116       -0.7907750211        1.1176253811
 H          2.8786810698       -2.8844770975        2.0927562137
 H          0.5584526074       -3.5841498874        1.6499591413
 H         -1.5650506759       -3.1187666636        0.8379702378
 C         -1.4503401530       -2.9411448576       -1.2788276542
 C         -0.4291410723       -2.8068045180       -2.3645665547
 C         -0.6158097022       -4.1229789900       -1.6752166696
 H         -1.0844942089       -4.9316728031       -2.2150957365
 H          0.1567719394       -4.4366622956       -0.9893806518
 H         -0.7889292729       -2.6906230334       -3.3757823196
 H          0.4718157825       -2.2478838617       -2.1626925858
 H         -2.4867901901       -2.9518854518       -1.6013472081
