  62
        -98.94267030
 C         -1.6452419966       -1.4469931015        0.2346891601
 C         -1.3250119803       -0.3635790814       -0.6148782168
 C         -1.9287213985        0.9317602265       -0.2742041065
 C         -2.7068941900        1.0215540503        0.8194224162
 C         -3.4304832039        2.2562767532        1.2768093422
 C         -4.6758728819        2.5032689600        0.4016539681
 C         -4.6132450057        3.7813760226       -0.4346131323
 H         -5.4316217460        3.7410750668       -1.1564913711
 H         -4.7889315702        4.6402233801        0.2164546979
 C         -3.2986553689        4.0204967529       -1.1827799833
 H         -3.4894005559        4.8035238807       -1.9196971003
 H         -2.5503602297        4.4158015459       -0.4940069219
 C         -2.7075852125        2.8003233845       -1.8999991660
 H         -2.2974789848        3.1345577937       -2.8550021747
 H         -3.4869240599        2.0720341177       -2.1246404487
 C         -1.5617598907        2.1023590174       -1.1442242682
 H         -0.8613089166        1.6932739580       -1.8784818897
 H         -1.0114132558        2.8339090992       -0.5443211645
 H         -4.8074652287        1.6414339277       -0.2556882148
 H         -5.5616049163        2.5525001629        1.0367779784
 H         -3.7196587566        2.0944486309        2.3157057217
 H         -2.7538260281        3.1074732314        1.2364152644
 O         -2.9893855933       -0.0423460013        1.6163290422
 C         -2.4516911918       -1.2925556900        1.3594484250
 O         -2.7625962544       -2.1711386563        2.1911467580
 H          0.5065221150       -1.3080335474        1.5815238065
 C          1.1020610363       -1.8184203959        0.8381972940
 C          0.4866213723       -2.6554167401       -0.0841192270
 C          1.2816345396       -3.3097763334       -1.0167637107
 C          2.6501471715       -3.1015510489       -1.0414207281
 C          3.2499613446       -2.2235506056       -0.1571735707
 C          2.4641158410       -1.5743794194        0.7879730740
 N          3.0185789261       -0.6559934013        1.7043844412
 S          2.4921414798        0.9336522755        1.6195256973
 O          3.2545233753        1.6321670726        2.6329745652
 O          1.0587411553        0.9922413447        1.7460423958
 C          3.0164541485        1.4891547353        0.0068186897
 C          4.1766887401        2.2339953103       -0.0903667146
 C          4.6254551669        2.6190790740       -1.3429930135
 C          3.9146016752        2.2455391709       -2.4738432305
 C          2.7562461110        1.4931150950       -2.3586524234
 C          2.2979820527        1.1065671788       -1.1080155718
 H          1.3965912530        0.5234652482       -0.9987552563
 H          2.1981303287        1.1963193961       -3.2322330978
 H          4.2639335769        2.5420194448       -3.4503013901
 H          5.5258293718        3.2051566772       -1.4332916124
 H          4.6930586765        2.5023988992        0.8172121434
 H          4.0296675588       -0.6633792260        1.7238871043
 H          4.3130229147       -2.0390240902       -0.1953202523
 H          3.2546875463       -3.6149941701       -1.7733338723
 H          0.8278801157       -3.9771913944       -1.7310700570
 C         -1.0146099921       -2.8050809275       -0.0160283925
 H         -1.2629707263       -3.4244471486        0.8586680881
 C         -1.6114535162       -3.4433529598       -1.2537848597
 C         -1.7261834081       -4.9339359479       -1.3577335478
 C         -2.9537545701       -4.1004511160       -1.1493214090
 H         -3.6490839516       -3.9880717871       -1.9675540478
 H         -3.4234955685       -4.1099002016       -0.1761854302
 H         -1.5826623484       -5.3967120569       -2.3224790465
 H         -1.3688987729       -5.5227174118       -0.5264080970
 H         -1.3985384472       -2.8794166343       -2.1547145570
 O         -0.5583926568       -0.4734452688       -1.6090903663
