  62
        -98.94227142
 C         -1.5096829209       -1.3288902191        0.2922241324
 C         -2.1841518706       -0.8695027398       -0.8648392881
 C         -3.2023719499        0.1680703511       -0.6390042191
 C         -3.4425140396        0.5981723225        0.6132558804
 C         -4.4024746289        1.6937653435        0.9751371093
 C         -3.6978787580        3.0575728031        1.0007155078
 C         -2.8525366678        3.3367471712       -0.2422164625
 H         -2.4214091672        4.3337715711       -0.1276161935
 H         -2.0204675683        2.6290024407       -0.2740164717
 C         -3.6283535579        3.2639124504       -1.5651243724
 H         -4.6988375178        3.3383547613       -1.3704548525
 H         -3.3508622373        4.1216737695       -2.1815739633
 C         -3.3520250987        2.0099910693       -2.3974092511
 H         -2.2736492188        1.8846240985       -2.5272041409
 H         -3.7826708886        2.1611918286       -3.3908606312
 C         -3.9260852796        0.6992578603       -1.8441837497
 H         -4.9901555895        0.8236695712       -1.6335008498
 H         -3.8156049801       -0.0636334606       -2.6205291189
 H         -4.4542219675        3.8367185637        1.1099822670
 H         -3.0439301780        3.0936667436        1.8749467278
 H         -5.2194877889        1.7079018333        0.2566236792
 H         -4.8064984991        1.4845492948        1.9669736295
 O         -2.7879342800        0.1179054432        1.7007486709
 C         -1.7991793806       -0.8452993476        1.5683165119
 O         -1.2599249908       -1.1810487868        2.6402236023
 H          0.3694395401        0.1564291991       -0.3033278091
 C          1.0072824396       -0.5634768919       -0.8023606284
 C          0.7223052587       -1.9170974516       -0.6900487970
 C          1.5648979081       -2.8183345428       -1.3324107160
 C          2.6552864284       -2.3750085843       -2.0604946465
 C          2.9325641593       -1.0236319346       -2.1686735879
 C          2.0923517299       -0.1166915234       -1.5414121888
 N          2.3972702008        1.2679026964       -1.6146970603
 S          3.5674275111        1.7301126668       -0.5034433508
 O          3.6038381120        3.1742196367       -0.5345277123
 O          4.7933873707        1.0474411556       -0.8248408601
 C          2.9230048607        1.1542046688        1.0558296298
 C          3.1766220399       -0.1460375909        1.4442723812
 C          2.5566585595       -0.6364511093        2.5822399817
 C          1.6934495201        0.1726014020        3.3044956309
 C          1.4537748109        1.4779777817        2.9034679395
 C          2.0663448313        1.9734862501        1.7638964790
 H          1.9003420919        2.9807940299        1.4147327479
 H          0.7788306513        2.1019331427        3.4675932488
 H          1.1900316598       -0.2207298768        4.1730544413
 H          2.7354655089       -1.6524830591        2.8952068028
 H          3.8488541795       -0.7466162720        0.8529030718
 H          1.5853848312        1.8542633270       -1.4775258209
 H          3.7870924495       -0.6580812557       -2.7139062683
 H          3.2989341879       -3.0908558452       -2.5483331657
 H          1.3670337774       -3.8752857626       -1.2565481249
 C         -0.4251541616       -2.3800331699        0.1763557435
 H         -0.0321964217       -2.5193198391        1.1951584437
 C         -1.0179694525       -3.6939999900       -0.2981006651
 C         -0.5174815833       -4.9989711798        0.2424270663
 C         -1.8642750130       -4.4860759485        0.6515998957
 H         -2.7463677533       -4.9783693283        0.2706323362
 H         -1.9808746727       -4.0950449473        1.6521795353
 H         -0.4757057139       -5.8495066105       -0.4214121929
 H          0.2740040467       -4.9697935895        0.9761103762
 H         -1.3330982524       -3.6555486209       -1.3344379751
 O         -1.9446282709       -1.2922867912       -2.0259651276
