  62
        -98.94151374
 C          2.3739102615        1.2304957037        0.1639357120
 C          3.3137272575        0.5663610372        0.9925564786
 C          4.1145278025       -0.4877726038        0.3563600316
 C          3.8962129718       -0.7859982069       -0.9371124988
 C          4.6019633802       -1.8695270161       -1.6988874051
 C          3.8362435524       -3.1972349814       -1.6150997139
 C          3.4364670603       -3.5908145234       -0.1929193559
 H          2.7031838990       -2.8722802369        0.1820155091
 H          2.9319797259       -4.5578205160       -0.2527666866
 C          4.6087409329       -3.6837295430        0.7941619332
 H          4.4976899216       -4.5964955905        1.3831761168
 H          5.5479330832       -3.7641106770        0.2459117231
 C          4.6980043987       -2.5216306228        1.7851314602
 H          5.4141018366       -2.7944372264        2.5647203997
 H          3.7282560510       -2.3777408409        2.2685971645
 C          5.1496823005       -1.1774453869        1.2002078960
 H          5.3517008711       -0.5032134370        2.0376545494
 H          6.0752794404       -1.3141469803        0.6374415098
 H          4.4569472961       -3.9823015424       -2.0506545553
 H          2.9262032556       -3.1115534439       -2.2140607405
 H          5.6069048568       -1.9916182787       -1.2993057625
 H          4.6699214457       -1.5657794134       -2.7448448782
 O          2.9595328604       -0.1577451536       -1.6907558444
 C          2.1647556320        0.8549443443       -1.1644675555
 O          1.3390483234        1.3154098881       -1.9733257034
 O          3.4719531023        0.8400670646        2.2126666580
 C          1.5289959817        2.3230513182        0.7958648759
 C          0.0735752071        2.1058774834        0.4654113197
 C         -0.7123000536        3.0268561986       -0.2131821481
 C         -2.0363756083        2.7407805908       -0.4974808517
 C         -2.6053468047        1.5419726676       -0.1099695674
 C         -1.8268245048        0.6104251702        0.5647672291
 C         -0.5032428000        0.9021736000        0.8531055236
 H          0.1057982976        0.1724503709        1.3742849483
 N         -2.3967167043       -0.6089088951        0.9733226812
 S         -3.2640730428       -1.5014246671       -0.1548961567
 O         -3.2076900760       -2.8647397613        0.3283363647
 O         -2.7884194540       -1.2773392495       -1.5001554583
 C         -4.9290456750       -0.8943493577        0.0192950757
 C         -5.6115341248       -0.4318962856       -1.0887085611
 C         -6.9086823786        0.0314379050       -0.9315094073
 C         -7.4970702169        0.0231086232        0.3238648649
 C         -6.7989725853       -0.4476842288        1.4260650021
 C         -5.5025903227       -0.9133475474        1.2756779362
 H         -4.9271007473       -1.2896201767        2.1047631743
 H         -7.2597740350       -0.4524816884        2.4006781325
 H         -8.5056684067        0.3858928426        0.4437357461
 H         -7.4525172368        0.3973658286       -1.7875326985
 H         -5.1099864756       -0.4380765550       -2.0435534058
 H         -1.7551612608       -1.2067752141        1.4743570685
 H         -3.6339420690        1.3144887229       -0.3371785189
 H         -2.6339274592        3.4621895589       -1.0336502212
 H         -0.2813042091        3.9567152029       -0.5452695207
 H          1.6540561020        2.1671195636        1.8809518927
 C          2.0118125045        3.7366314091        0.5090393324
 C          3.4577354092        4.0163898205        0.2311825311
 C          2.4404607008        4.1821718493       -0.8556799260
 H          2.1870540136        5.1843984889       -1.1693394910
 H          2.4102603029        3.4555318397       -1.6520969376
 H          3.9012953383        4.9010735256        0.6626915574
 H          4.1300257691        3.1722566490        0.1778599578
 H          1.4918209426        4.4697997602        1.1179954986
