  62
        -98.93798649
 C         -1.3722515290       -1.5236156110        0.0669067605
 C         -2.5420696591       -1.1213471315        0.7527565105
 C         -3.2323996395        0.0817198584        0.2542114408
 C         -2.7109684097        0.7428381887       -0.7945806791
 C         -3.2099179601        1.9979250687       -1.4652652289
 C         -4.7227728901        2.1008377083       -1.7127461489
 C         -5.4186214104        3.1267256479       -0.8164619587
 H         -4.7681422607        3.9983336481       -0.7176788185
 H         -6.3352018705        3.4573958677       -1.3100252286
 C         -5.7999522703        2.6226124975        0.5742538312
 H         -6.1523800005        3.4804073973        1.1518120714
 H         -6.6341416300        1.9227664373        0.4893201611
 C         -4.6751341101        1.9375127977        1.3530189911
 H         -4.9228639801        1.9911978574        2.4155379111
 H         -3.7341637002        2.4720402480        1.2210931512
 C         -4.4900489196        0.4563603379        0.9898959208
 H         -5.3538945395        0.1008940377        0.4205176507
 H         -4.4629994494       -0.1445716923        1.9043969407
 H         -5.1847366798        1.1215772181       -1.5980340591
 H         -4.8684022502        2.4078556885       -2.7496844388
 H         -2.8667476903        2.8543713587       -0.8785612687
 H         -2.6740537801        2.0421657891       -2.4163843889
 O         -1.5631194696        0.3392500292       -1.4059629592
 C         -0.8540162092       -0.7720923007       -0.9866376294
 O          0.1890824308       -0.9794354002       -1.6354779894
 O         -2.9917321089       -1.7421101018        1.7553358504
 C         -0.6203077386       -2.7339204709        0.5906437602
 C          0.8478388413       -2.4087261105        0.7117307903
 C          1.8659327815       -3.2052475701        0.2042140801
 C          3.1908514514       -2.8284210997        0.3462401502
 C          3.5268948010       -1.6419321297        0.9707794205
 C          2.5143183808       -0.8370245101        1.4798197106
 C          1.1939548609       -1.2368078905        1.3747212305
 H          0.4203159707       -0.5968221008        1.7752274506
 N          2.7921689804        0.4074701199        2.0895023508
 S          2.2981223500        1.7593612299        1.2258599411
 O          2.7211270096        2.8929520699        2.0215836313
 O          0.8892623700        1.6716515795        0.9408251711
 C          3.2754489100        1.6914165005       -0.2653072989
 C          2.8927286503        0.8518677605       -1.2920822891
 C          3.7173196103        0.7446325810       -2.4026846291
 C          4.8986532001        1.4667421414       -2.4661345689
 C          5.2670926898        2.3056404213       -1.4246483488
 C          4.4521475898        2.4156124708       -0.3102325688
 H          4.6946380196        3.0553656407        0.5231185014
 H          6.1849861397        2.8687571116       -1.4759757487
 H          5.5344928601        1.3750664117       -3.3325473890
 H          3.4238956305        0.0900101311       -3.2076186192
 H          1.9671346305        0.3000657902       -1.2267403192
 H          3.7653611304        0.5238545201        2.3403081609
 H          4.5581166009       -1.3340032894        1.0583252405
 H          3.9702183416       -3.4584117594       -0.0542377799
 H          1.6239667318       -4.1139697500       -0.3216897400
 H         -1.0173606086       -2.8795190812        1.6100375702
 C         -0.8973658082       -4.0224313608       -0.1700804500
 C         -2.1501557482       -4.1933537911       -0.9747612401
 C         -0.8247531782       -4.0930097305       -1.6651007300
 H         -0.4159725279       -4.9844071503       -2.1178643302
 H         -0.5873800785       -3.1831449403       -2.1933495699
 H         -2.6485621779       -5.1508338912       -0.9478256802
 H         -2.8249714884       -3.3517260013       -1.0366706099
 H         -0.5611335780       -4.8978488808        0.3768214398
