  62
        -98.94500501
 C         -2.5495072327       -0.1433079966        0.4403563181
 C         -2.4040866138        0.5367313435       -0.7924983406
 C         -2.2049960786        1.9894679524       -0.7029475283
 C         -2.1718016250        2.5779192856        0.5062144028
 C         -1.9706495039        4.0469883406        0.7406787590
 C         -0.4917621083        4.3995543497        0.9452011884
 C          0.4437004341        3.8313025944       -0.1223724764
 H          1.4445111849        4.2120453621        0.0954466924
 H          0.4945341545        2.7446012021       -0.0195788652
 C          0.0657161856        4.1932129263       -1.5652620228
 H          0.9759625459        4.4686962043       -2.1019375975
 H         -0.5907573205        5.0645557950       -1.5704155069
 C         -0.5880420031        3.0572555723       -2.3547623200
 H         -0.5657893928        3.3217820317       -3.4155475605
 H         -0.0009178116        2.1435519160       -2.2283174580
 C         -2.0452197544        2.7444928627       -1.9919195786
 H         -2.6290496290        3.6673942986       -1.9761711857
 H         -2.4514455992        2.0921316976       -2.7705219789
 H         -0.1729623828        4.0104562972        1.9152938259
 H         -0.4015696094        5.4878207568        0.9682467441
 H         -2.3707689396        4.5983670704       -0.1083349768
 H         -2.5263790771        4.3266352219        1.6378887389
 O         -2.3092243984        1.8899393506        1.6700793019
 C         -2.4768123516        0.5148746161        1.6659674276
 O         -2.5604746194        0.0023049072        2.8030547475
 H         -0.1704857288       -0.8987406782        0.5073946867
 C         -0.3012606309       -1.7765821082       -0.1087177406
 C         -1.5715677411       -2.3156812005       -0.2636141420
 C         -1.7166206290       -3.4560902925       -1.0430909146
 C         -0.6146299082       -4.0261647461       -1.6577774748
 C          0.6446786027       -3.4746518048       -1.5153943598
 C          0.7994955311       -2.3292714553       -0.7401516896
 N          2.0551794104       -1.7105885459       -0.6257465132
 S          2.3542255904       -0.5915757391        0.5927845124
 O          2.1124275757       -1.1810092763        1.8928483596
 O          1.6452221033        0.6264470533        0.2948370400
 C          4.1039879590       -0.3469927583        0.3556136156
 C          4.5277776326        0.5749185927       -0.5824690338
 C          5.8877830616        0.7436837114       -0.7891881032
 C          6.7962413945       -0.0088113029       -0.0596766679
 C          6.3562981181       -0.9285449805        0.8804374164
 C          4.9975478438       -1.1021565113        1.0916971710
 H          4.6091054107       -1.7959614488        1.8199127201
 H          7.0646568300       -1.5091680897        1.4490304872
 H          7.8539826051        0.1250219109       -0.2222550165
 H          6.2331833988        1.4605888459       -1.5164212341
 H          3.7842843921        1.1419359676       -1.1183410429
 H          2.8342864896       -2.3328930229       -0.7858198297
 H          1.4995248750       -3.9145767676       -2.0052910093
 H         -0.7400748614       -4.9130431112       -2.2602990645
 H         -2.6920284981       -3.8963240812       -1.1714564730
 C         -2.7241161901       -1.6502035710        0.4509835985
 H         -2.6881740348       -1.9540257669        1.5087927116
 C         -4.0769767575       -2.0259246272       -0.1199673910
 C         -4.8152847345       -3.2228497035        0.3973162946
 C         -5.2943689471       -1.8437456002        0.7341219038
 H         -6.2001586100       -1.4814456967        0.2718351304
 H         -5.1398896809       -1.4770019736        1.7389236197
 H         -5.3979474015       -3.8090577269       -0.2972606495
 H         -4.3475876936       -3.7992747418        1.1813731736
 H         -4.1620026892       -1.7833126229       -1.1730089919
 O         -2.4497566504       -0.0385865431       -1.9117853689
