  62
        -98.93259016
 C         -1.7707439147       -0.9678885348        0.4734894565
 C         -2.3976435334        0.1615412094        1.0591449528
 C         -3.8580589242        0.2559300116        0.9187241282
 C         -4.5138766203       -0.7210307933        0.2669401731
 C         -5.9864521137       -0.7397104316       -0.0302934473
 C         -6.2970540280        0.2036796724       -1.2098169060
 C         -7.1592017411        1.4110731681       -0.8409565395
 H         -7.1291570792        2.1045527081       -1.6840911561
 H         -8.1941879836        1.0846417550       -0.7192702743
 C         -6.7513510220        2.1574852731        0.4328143457
 H         -7.2740924478        3.1162822458        0.4210624660
 H         -7.1146616962        1.6165202530        1.3078395760
 C         -5.2492882844        2.4180116342        0.6062881129
 H         -5.1240020222        3.4170670485        1.0290754814
 H         -4.7433448726        2.4177995126       -0.3595737004
 C         -4.5341875095        1.4384310196        1.5555769680
 H         -3.7310634296        1.9746640971        2.0701366122
 H         -5.2370186491        1.0907530719        2.3181204523
 H         -6.8079390666       -0.3532273555       -1.9966871695
 H         -5.3500899856        0.5469200122       -1.6317708977
 H         -6.5441778847       -0.4431065768        0.8551907153
 H         -6.2531929149       -1.7657920592       -0.2841247417
 O         -3.8826776435       -1.7917309458       -0.2753402352
 C         -2.5023280696       -1.9458955685       -0.2019493440
 O         -2.0878210980       -2.9737958237       -0.7656570120
 O         -1.7583181001        1.0513532568        1.6844465864
 C         -0.2617274875       -1.0595688896        0.6200400398
 C          0.4282501295       -0.3993250943       -0.5464777936
 C          0.0948874491       -0.7313088382       -1.8568858084
 C          0.7207050757       -0.1057572719       -2.9187718204
 C          1.6939950272        0.8529491698       -2.6971010736
 C          2.0338058068        1.1925668361       -1.3928054018
 C          1.4034721388        0.5627076906       -0.3266248636
 H          1.6576408587        0.8575510742        0.6805358321
 N          3.0070295725        2.1682402628       -1.1463340832
 S          4.0051847367        2.0865032610        0.1840516983
 O          3.3002313290        2.4857405306        1.3759333102
 O          5.1444613616        2.9035091555       -0.1763502567
 C          4.5162938985        0.3817013483        0.3261354759
 C          4.8621568796       -0.3221924387       -0.8107181189
 C          5.2907608987       -1.6336094553       -0.6829954922
 C          5.3789409426       -2.2144001295        0.5726106490
 C          5.0368752142       -1.4927115733        1.7053516987
 C          4.5973315009       -0.1836216143        1.5826838598
 H          4.3060756642        0.4078711752        2.4361633770
 H          5.1029502485       -1.9445946242        2.6819405890
 H          5.7121782174       -3.2352877155        0.6689908238
 H          5.5536705038       -2.1981213640       -1.5628671405
 H          4.7938781398        0.1514252162       -1.7761785427
 H          3.4767384296        2.5325310109       -1.9613618211
 H          2.1786683116        1.3451423440       -3.5264674152
 H          0.4510921878       -0.3696321706       -3.9302386405
 H         -0.6592279341       -1.4840601533       -2.0296718608
 H         -0.0309862920       -0.4600870646        1.5154254799
 C          0.2344793585       -2.4754744649        0.8795016014
 C          1.0802284490       -3.2463391728       -0.0852657358
 C          1.6867879030       -2.7080558311        1.1730730573
 H          1.9525061241       -3.3970830953        1.9598989967
 H          2.3483437880       -1.8592251025        1.0852872418
 H          0.8992121524       -4.3070026375       -0.1655659522
 H          1.3458222515       -2.7785373848       -1.0196011076
 H         -0.4785848556       -3.0532042208        1.4582758112
