  62
        -98.93590225
 C         -2.5940013796       -0.2148352095       -0.0893839400
 C         -2.3580200594       -1.3492836297       -0.9050591597
 C         -1.6152209896       -2.4573089896       -0.2928491893
 C         -1.2317847899       -2.3566382294        0.9922674907
 C         -0.3565541900       -3.3381760192        1.7189020211
 C          1.1174376701       -3.0846183794        1.3389951414
 C          1.7760934202       -4.2133536295        0.5436631717
 H          2.7086934803       -3.8173397396        0.1359285418
 H          2.0298864200       -5.0263611894        1.2277816619
 C          0.9474503504       -4.8079318497       -0.5990062883
 H          1.6329745105       -5.3925429799       -1.2162012981
 H          0.2160873303       -5.5094241796       -0.1942472083
 C          0.2164413506       -3.8007708199       -1.4962898387
 H          0.2825770408       -4.1512715001       -2.5286098786
 H          0.7032618506       -2.8238347699       -1.4615646688
 C         -1.2801539194       -3.6302297198       -1.1701365290
 H         -1.6703807796       -4.5503479197       -0.7266005389
 H         -1.8255441493       -3.4527490700       -2.1016407892
 H          1.7013078799       -2.9197568592        2.2464551414
 H          1.1693229002       -2.1523570295        0.7696581012
 H         -0.5037459602       -3.1781017290        2.7872703111
 H         -0.6503742700       -4.3556020093        1.4702329913
 O         -1.5352088800       -1.2842802092        1.7660879505
 C         -2.1430052198       -0.1573138193        1.2316137901
 O         -2.2399621900        0.7892403009        2.0348222799
 O         -2.7310390792       -1.4177834899       -2.1092304398
 C         -3.1291350794        1.0332077203       -0.7746341103
 C         -2.1174396594        2.1345698704       -0.5686054803
 C         -2.4154007995        3.4115364705       -0.1148586807
 C         -1.3994442795        4.3285802605        0.1003682394
 C         -0.0747260495        3.9871007404       -0.1009905203
 C          0.2315044006        2.7124404603       -0.5644669900
 C         -0.7892397494        1.8178092203       -0.8271415100
 H         -0.5369555693        0.8318750502       -1.1920512298
 N          1.5604954206        2.2916208602       -0.7714209796
 S          1.9113308305        0.7216227003       -0.2330199092
 O          1.5974143207       -0.2163638699       -1.2829247691
 O          1.2897320902        0.4869057806        1.0488234607
 C          3.6817957904        0.8304873003       -0.0461686489
 C          4.4911286007        0.5875145401       -1.1393707987
 C          5.8642373606        0.7113379000       -0.9962163784
 C          6.4014462304        1.0755482403        0.2294831516
 C          5.5764082802        1.3141779005        1.3185253314
 C          4.2025744902        1.1922738705        1.1820212911
 H          3.5213737700        1.3560722807        2.0020389710
 H          5.9961759700        1.5932727307        2.2714575814
 H          7.4701537304        1.1713316103        0.3380825918
 H          6.5087918608        0.5229746399       -1.8394770483
 H          4.0271233408        0.2995906399       -2.0682916787
 H          2.2339087506        2.9514573703       -0.4042126596
 H          0.7149641905        4.6937518404        0.1052567097
 H         -1.6429491195        5.3174718205        0.4585809491
 H         -3.4371319395        3.6811692205        0.0971069891
 H         -3.1193420892        0.7676550301       -1.8462889703
 C         -4.5605577095        1.4253949904       -0.4493148307
 C         -5.5303962296        0.4217024906        0.0972279093
 C         -5.0725398897        1.5631637507        0.9520433792
 H         -5.7753481298        2.3568137008        1.1606676289
 H         -4.3829266699        1.3606922709        1.7553351194
 H         -6.5429996695        0.4267792405       -0.2775882109
 H         -5.1495534697       -0.5645836294        0.3212886696
 H         -4.9598478393        2.1241582403       -1.1786441209
