  62
        -98.93969885
 C         -2.6415059243       -1.3154532070        0.3193948682
 C         -2.8701927185       -0.5073973083       -0.8214647111
 C         -3.8847444227        0.5486909045       -0.6673930846
 C         -4.5270393720        0.6905076743        0.5053468635
 C         -5.5334444649        1.7602491373        0.8128689842
 C         -4.8589166803        2.9995528420        1.4176888676
 C         -3.6427865598        3.4868283445        0.6299055071
 H         -3.2686026910        4.3824380874        1.1304225632
 H         -2.8539651330        2.7330911008        0.6889822582
 C         -3.9284349739        3.8069205187       -0.8440824027
 H         -5.0008848616        3.9351408721       -0.9946152543
 H         -3.4501160000        4.7558189862       -1.0958374493
 C         -3.3999784792        2.7665118817       -1.8334304501
 H         -2.3453470685        2.5672817180       -1.6259773400
 H         -3.4596623888        3.1919269117       -2.8389080000
 C         -4.1482506068        1.4275155655       -1.8582305470
 H         -5.2188071592        1.6067738783       -1.9755633879
 H         -3.7962972272        0.8668335837       -2.7293565600
 H         -5.5988748956        3.7994880684        1.4797241575
 H         -4.5343948707        2.7564876135        2.4320372086
 H         -6.0611680687        2.0293097249       -0.1000367591
 H         -6.2502692531        1.3603351369        1.5319139238
 O         -4.2901298526       -0.1098210877        1.5751936517
 C         -3.3457221042       -1.1184064282        1.5119679848
 O         -3.2284510017       -1.7732827280        2.5665489201
 H         -0.2641632023       -0.4991362550       -0.9142556883
 C          0.3087276416       -0.9290011921       -0.1054784774
 C         -0.2475226148       -1.9533136206        0.6487703225
 C          0.5081978865       -2.5093871416        1.6737377438
 C          1.7868545027       -2.0479545686        1.9348924983
 C          2.3359979148       -1.0253610720        1.1823389259
 C          1.5900098681       -0.4643532631        0.1537790939
 N          2.1340753037        0.5817319262       -0.6131079040
 S          3.6513158533        0.3413881452       -1.2940781959
 O          3.6983180323        1.2201380626       -2.4417710643
 O          3.9000175823       -1.0594815054       -1.5451631983
 C          4.7751796907        0.9488706497       -0.0537044435
 C          4.6124630144        2.2458810850        0.3923158935
 C          5.4831093245        2.7377160274        1.3515336797
 C          6.4978743068        1.9300920909        1.8434293010
 C          6.6505147624        0.6315058894        1.3823966270
 C          5.7820695058        0.1329490438        0.4236285876
 H          5.8588232878       -0.8717942119        0.0395255063
 H          7.4403707584        0.0056693448        1.7655812896
 H          7.1737901706        2.3155407054        2.5903255134
 H          5.3676429526        3.7471744271        1.7121450989
 H          3.8138008182        2.8411625503       -0.0178698236
 H          1.4921211163        0.9403792774       -1.3058922557
 H          3.3310535135       -0.6623859094        1.3814453829
 H          2.3621704357       -2.4880237681        2.7349634618
 H          0.0826789728       -3.3012610420        2.2727595909
 C         -1.6358176429       -2.4560911273        0.3457458341
 H         -1.9486104634       -3.0902395218        1.1898012556
 C         -1.6933280332       -3.3181246960       -0.9102539610
 C         -0.5792637296       -3.4268474724       -1.9040107207
 C         -0.8787987921       -4.5752601152       -0.9909222629
 H         -1.3334448326       -5.4635615634       -1.4023794867
 H         -0.1814981551       -4.7652388789       -0.1887223985
 H         -0.8477910427       -3.5055352886       -2.9467647426
 H          0.3255498938       -2.8632588115       -1.7348294631
 H         -2.6980925251       -3.3672760215       -1.3178661301
 O         -2.2683686297       -0.6376269432       -1.9201427413
