  62
        -98.94136038
 C         -1.8502857806       -1.3526598287        0.6247584408
 C         -1.7872025502       -0.0388572386        1.1568484805
 C         -2.9926614100        0.7862973517        1.0147393403
 C         -4.0827766902        0.2542667019        0.4331246305
 C         -5.3717116200        0.9845641522        0.1920698203
 C         -5.3876664898        1.6437687020       -1.1940565198
 C         -4.1332161096        2.4611509015       -1.5021299200
 H         -3.2767358498        1.7861813313       -1.5702045799
 H         -4.2701353395        2.9067229814       -2.4898167701
 C         -3.8279632992        3.5654280317       -0.4803422902
 H         -4.7199771492        3.7838428720        0.1077936097
 H         -3.5644455890        4.4773551715       -1.0200283904
 C         -2.6625029493        3.2518372315        0.4598961398
 H         -1.8024455894        2.9253020311       -0.1303862402
 H         -2.3825756290        4.1755884116        0.9735573396
 C         -2.9384232596        2.1943533918        1.5369473700
 H         -2.1100408596        2.2166271717        2.2515450000
 H         -3.8570133695        2.4440552422        2.0719766500
 H         -5.4795281401        0.8594838018       -1.9490284596
 H         -6.2688358296        2.2845885322       -1.2613627999
 H         -5.5063960997        1.7372136225        0.9665513702
 H         -6.1901525602        0.2650492525        0.2518521905
 O         -4.1156550606       -1.0124338482       -0.0475738093
 C         -2.9968153308       -1.8401375885       -0.0039921291
 O         -3.1779740011       -2.9456419185       -0.5439200389
 O         -0.7623714701        0.4187869712        1.7302701104
 C         -0.5814186909       -2.1774529790        0.7459421109
 C          0.3675233392       -1.8265009195       -0.3721136192
 C         -0.0648846508       -1.7857609797       -1.6943246892
 C          0.8153024593       -1.4531922201       -2.7071589693
 C          2.1333296594       -1.1408871505       -2.4209454294
 C          2.5750110194       -1.1759679103       -1.1035301994
 C          1.6912237693       -1.5262559698       -0.0905260093
 H          2.0469355093       -1.5485006297        0.9281736807
 N          3.9122765295       -0.8873519006       -0.7908018795
 S          4.3102306198        0.1036779695        0.4988079903
 O          5.7260059998        0.3476187791        0.3321074902
 O          3.9135275396       -0.5169091201        1.7360209504
 C          3.4090075102        1.6162364897        0.2183520600
 C          4.0302206205        2.6097697194       -0.5153323802
 C          3.3399596208        3.7791736895       -0.7864598905
 C          2.0405860909        3.9346660300       -0.3261151905
 C          1.4329219606        2.9283490103        0.4070910798
 C          2.1171246303        1.7545734602        0.6831477100
 H          1.6449361300        0.9680396204        1.2495708502
 H          0.4240903806        3.0335308507        0.7734440598
 H          1.4997462411        4.8440351401       -0.5362756406
 H          3.8143723910        4.5640540093       -1.3535407606
 H          5.0453517704        2.4520411890       -0.8423915902
 H          4.4860076995       -0.6646715210       -1.5916076895
 H          2.8171620494       -0.8755323408       -3.2127124295
 H          0.4706772492       -1.4294995003       -3.7299907293
 H         -1.0954980209       -2.0234827094       -1.9155108491
 H         -0.1106051108       -1.8433745790        1.6855814208
 C         -0.8175011513       -3.6743998089        0.8725399112
 C         -0.4937688216       -4.6551010292       -0.2100798286
 C          0.3520850684       -4.6016442192        1.0245218714
 H          0.2828834582       -5.4087692591        1.7380079116
 H          1.3401286986       -4.1737751795        0.9368513213
 H         -1.1675349319       -5.4869062391       -0.3465139684
 H         -0.0748587915       -4.2807619696       -1.1307982287
 H         -1.6939839313       -3.8968397685        1.4720173813
