  62
        -98.94416948
 C         -2.6348057701       -1.0957471802        0.1914090996
 C         -2.7281877404       -0.2879591601       -0.9678757603
 C         -3.5479061005        0.9255876698       -0.8357931601
 C         -4.1519515803        1.1902328197        0.3370797700
 C         -4.9686951504        2.4163792696        0.6239687902
 C         -4.0982536504        3.5398093096        1.2045080701
 C         -2.8209067105        3.8053631498        0.4074340299
 H         -2.3016495805        4.6350642898        0.8922394599
 H         -2.1675304504        2.9324031099        0.4794251798
 C         -3.0540803508        4.1409551998       -1.0723466800
 H         -2.4271908809        4.9939337199       -1.3401991401
 H         -4.0914601109        4.4409531697       -1.2241859198
 C         -2.7064045209        3.0097479699       -2.0420222801
 H         -1.6992352908        2.6410356000       -1.8307511203
 H         -2.6982534711        3.4213552400       -3.0546465801
 C         -3.6660867907        1.8130616898       -2.0428465200
 H         -4.6926982708        2.1638641197       -2.1652219999
 H         -3.4112806008        1.1845614899       -2.9010745101
 H         -4.6963389905        4.4516000496        1.2509682003
 H         -3.8154006702        3.2672029496        2.2241742601
 H         -5.4470658205        2.7507185796       -0.2944250797
 H         -5.7396416002        2.1540722095        1.3504353403
 O         -4.0427533700        0.3860477996        1.4265583699
 C         -3.2720943299       -0.7650115103        1.3859926998
 O         -3.2299595497       -1.3954362204        2.4632408697
 H         -0.3348122100       -0.3425407900        1.0911500293
 C          0.2374205399       -0.9440352399        0.3938139692
 C         -0.3691747001       -2.0416271099       -0.2048490308
 C          0.3833822899       -2.8150268698       -1.0788128109
 C          1.6970974398       -2.4797351397       -1.3585316411
 C          2.2882329298       -1.3735079596       -0.7773575012
 C          1.5501051699       -0.6008291298        0.1099064590
 N          2.1390802998        0.5320831203        0.7003454189
 S          3.6178828700        0.3382829904        1.4745282987
 O          3.7694718102       -1.0011971396        1.9942692486
 O          3.6815365500        1.4140813303        2.4398737687
 C          4.8171728597        0.6371018806        0.1933367485
 C          4.7538705295        1.8351711606       -0.4908760414
 C          5.6860172293        2.0876770307       -1.4846084816
 C          6.6618261694        1.1450389708       -1.7729984318
 C          6.7140285796       -0.0513655692       -1.0742839118
 C          5.7836245598       -0.3109140493       -0.0798697617
 H          5.7813701100       -1.2288421994        0.4860078282
 H          7.4736259796       -0.7824973991       -1.2997149120
 H          7.3858833792        1.3445516810       -2.5470966919
 H          5.6482900891        3.0166771208       -2.0304254715
 H          3.9821157795        2.5415213005       -0.2338718813
 H          1.5056779399        1.0587099402        1.2843655191
 H          3.3078111697       -1.1045526895       -0.9999429013
 H          2.2675728197       -3.0870460296       -2.0444712613
 H         -0.0599774601       -3.6797038798       -1.5444712709
 C         -1.7992943800       -2.3619525601        0.1603212794
 H         -1.8041371398       -2.7557912102        1.1880724794
 C         -2.4412599400       -3.3846688601       -0.7549116505
 C         -2.3009549198       -4.8494139201       -0.4723620306
 C         -3.6153561799       -4.1656615803       -0.2488705504
 H         -4.4293050099       -4.3724818703       -0.9273220702
 H         -3.9316351697       -3.9797073503        0.7676527797
 H         -1.7282573097       -5.1394358001        0.3957668893
 H         -2.2157942599       -5.5301280201       -1.3059743307
 H         -2.4644265102       -3.0593750701       -1.7885283205
 O         -2.1565974105       -0.5623984600       -2.0541362504
