  62
        -98.94611680
 C         -1.7753082196       -1.1566633794       -0.2724237002
 C         -3.1238918094       -1.3006554595        0.1340704003
 C         -4.0502544896       -0.2609655294       -0.3334353392
 C         -3.5848832399        0.7327723907       -1.1124669592
 C         -4.4054139001        1.8842431908       -1.6154923986
 C         -4.3459708198        3.0733093506       -0.6463109184
 C         -4.6175471992        2.6961360903        0.8099855016
 H         -3.8098200391        2.0540305103        1.1685607012
 H         -4.5810370090        3.6164447802        1.3968185318
 C         -5.9630407991        1.9947907703        1.0429259319
 H         -6.4405234088        2.4355727601        1.9205948522
 H         -6.6241184895        2.1694392104        0.1933148822
 C         -5.8587728690        0.4905761102        1.3020697216
 H         -6.8282186289        0.1404717601        1.6665050719
 H         -5.1267856787        0.3047915901        2.0921493813
 C         -5.4881951195       -0.3725983695        0.0891462713
 H         -5.6381898394       -1.4196400596        0.3683376611
 H         -6.1543223898       -0.1414774594       -0.7445550384
 H         -5.0718355399        3.8204670007       -0.9721716580
 H         -3.3500727598        3.5181786507       -0.7049454187
 H         -5.4357515801        1.5596727208       -1.7468943383
 H         -4.0058255805        2.1941583110       -2.5825957887
 O         -2.2861860301        0.8290395108       -1.4946451596
 C         -1.3470107899       -0.1025464492       -1.0777933201
 O         -0.1919899300        0.1186416108       -1.4868402405
 O         -3.5307786092       -2.2494207497        0.8569622402
 C         -0.7562168794       -2.1841329895        0.1878339892
 C          0.3118066409       -1.5049213597        1.0084814490
 C         -0.0731853387       -0.8112516399        2.1544229492
 C          0.8605010916       -0.1655651100        2.9401722790
 C          2.2011090114       -0.1904242200        2.5946166086
 C          2.5965840910       -0.8807589397        1.4566389483
 C          1.6561611908       -1.5403625696        0.6748546685
 H          1.9950846004       -2.0581813394       -0.2061492318
 N          3.9557584909       -0.9418515896        1.0889561478
 S          4.4147097604       -0.3363121493       -0.4052582123
 O          3.7699028000       -1.0785545691       -1.4553722322
 O          5.8614230404       -0.3791732493       -0.3877046028
 C          3.8732622803        1.3632114507       -0.3728685617
 C          4.7841739205        2.3320354206        0.0042121981
 C          4.3630561605        3.6471449806        0.1095906485
 C          3.0394261504        3.9687588306       -0.1518645109
 C          2.1388423803        2.9836648107       -0.5251141408
 C          2.5526723003        1.6645251307       -0.6379035812
 H          1.8628048502        0.8891268208       -0.9328664811
 H          1.1076627102        3.2236488107       -0.7318716804
 H          2.7073622504        4.9915536406       -0.0662186806
 H          5.0635615206        4.4147154705        0.3967962785
 H          5.8033121805        2.0357235306        0.1939479877
 H          4.5786910312       -0.5725151498        1.7945688076
 H          2.9348147017        0.3164209299        3.2031618284
 H          0.5447311219        0.3656749998        3.8251885993
 H         -1.1217194886       -0.7891869200        2.4191454396
 H         -1.3106015492       -2.8679492796        0.8476375493
 C         -0.2175204498       -2.9748375393       -0.9847278011
 C          0.3403769303       -4.3481951893       -0.7649273816
 C         -0.9746056600       -4.1759346092       -1.4625975311
 H         -1.0254608904       -4.3644487690       -2.5245345711
 H         -1.8758991998       -4.4396411793       -0.9284919008
 H          1.1969214801       -4.6536854492       -1.3469628620
 H          0.3330415206       -4.7344665895        0.2431704283
 H          0.2525128199       -2.3507123391       -1.7371176112
