  62
        -98.92859609
 C         -2.3864825199       -0.7744887208        0.3099511403
 C         -1.7417899603       -0.0234822807       -0.7007638499
 C         -2.0076483008        1.4289096692       -0.6976265701
 C         -2.8597400609        1.9401916090        0.2076737399
 C         -3.2471753714        3.3809300489        0.3998168296
 C         -2.3654603515        4.0471018994        1.4694577594
 C         -1.0524968718        4.6310803898        0.9490981292
 H         -1.2665734522        5.5272406996        0.3632317490
 H         -0.4667805518        4.9401528002        1.8179299390
 C         -0.2077184016        3.6802669500        0.0967995093
 H          0.8197062983        4.0472895304        0.1022461491
 H         -0.1935389811        2.6885310401        0.5531897094
 C         -0.6950250217        3.5799704095       -1.3558892507
 H         -1.4267456320        4.3655408592       -1.5418917807
 H          0.1424801282        3.7676556897       -2.0291706808
 C         -1.2833478612        2.2195199592       -1.7528614104
 H         -0.4768642910        1.5588055195       -2.0869759403
 H         -1.9526293914        2.3546287188       -2.6087881503
 H         -2.9326964718        4.8533751493        1.9389790793
 H         -2.1577467212        3.3027496397        2.2428677395
 H         -4.2797102214        3.3779155586        0.7558159898
 H         -3.2036342617        3.9220727487       -0.5403088805
 O         -3.4768918305        1.1724944390        1.1501283301
 C         -3.2461782000       -0.1868982409        1.2362749803
 O         -3.8512124797       -0.7582412110        2.1676354805
 O         -0.9693425102       -0.5254006406       -1.5552888399
 C         -2.1843043093       -2.2824673507        0.4133061706
 C         -0.7186843992       -2.6017363602        0.2307534705
 C         -0.1592618489       -3.5726842401       -0.5885881894
 C          1.2136113112       -3.7605392696       -0.6304098695
 C          2.0693907609       -2.9852498891        0.1256658303
 C          1.5277985307       -1.9967534792        0.9403667001
 C          0.1541398006       -1.8375623597        1.0052199503
 H         -0.2579880696       -1.0774165397        1.6586302802
 N          2.3692872204       -1.1781098887        1.7155116599
 S          3.7186569201       -0.4364685083        1.0684147396
 O          4.6276442804       -1.4493177881        0.5918477697
 O          4.2117931699        0.4135745820        2.1283280394
 C          3.1934320496        0.5781528512       -0.3049388905
 C          3.3307272291        1.9482400513       -0.1986184208
 C          2.9792543886        2.7455023209       -1.2755722709
 C          2.4810279087        2.1629182405       -2.4305363708
 C          2.3331172292        0.7874340505       -2.5160355405
 C          2.7008483397       -0.0172395692       -1.4496198504
 H          2.6056491701       -1.0889724493       -1.4999624301
 H          1.9324863793        0.3328777501       -3.4077885003
 H          2.2102396784        2.7811048103       -3.2723049508
 H          3.0997396382        3.8154044110       -1.2131327911
 H          3.7211960590        2.3578628916        0.7190633591
 H          1.8708373503       -0.5252943488        2.3021551098
 H          3.1388421410       -3.1147037288        0.0867491402
 H          1.6218692214       -4.5254913496       -1.2739602494
 H         -0.7696615987       -4.1910643505       -1.2195806792
 H         -2.4305925091       -2.5385823606        1.4587909207
 C         -3.2690766091       -2.9341595313       -0.4344504392
 C         -3.1507252592       -3.2677421615       -1.8875921691
 C         -3.3219533686       -4.3655106714       -0.8773217189
 H         -4.2822202185       -4.8587428017       -0.8328092987
 H         -2.4975984984       -5.0198636410       -0.6483412488
 H         -3.9873034293       -3.0306019619       -2.5290685091
 H         -2.1944342793       -3.1173947012       -2.3615835292
 H         -4.2272403893       -2.5183732916       -0.1273425391
