  62
        -98.93906854
 C          2.1152458190        1.1227875734        0.4839749119
 C          2.2107311122        0.3092719301       -0.6689504111
 C          2.9144589825       -0.9773703606       -0.5094940830
 C          3.3850167393       -1.3305965732        0.7007177922
 C          4.0964928550       -2.5829258196        1.1697212000
 C          4.6829132034       -3.5715134547        0.1652718798
 C          5.8703671272       -3.0406341534       -0.6371124165
 H          6.7206752151       -2.9219295517        0.0390511097
 H          6.1402309489       -3.7915467977       -1.3827502402
 C          5.6478867582       -1.7024941172       -1.3372748728
 H          6.5692441525       -1.4455836433       -1.8667785773
 H          5.4764073010       -0.9226623420       -0.5925668063
 C          4.5067545662       -1.6778563490       -2.3523067769
 H          4.6431360013       -2.4805896767       -3.0793659840
 H          4.5638454758       -0.7269304032       -2.8884116845
 C          3.0906472788       -1.7888229038       -1.7603658768
 H          2.3838259346       -1.3809681058       -2.4890947812
 H          2.8113356361       -2.8254852689       -1.5861781070
 H          5.0333620611       -4.4303677704        0.7443010830
 H          3.9053984404       -3.9372807787       -0.4990356186
 H          4.8913770270       -2.2396781366        1.8397535223
 H          3.3732820558       -3.1158822051        1.7975359237
 O          3.2168115266       -0.5336895457        1.7985135906
 C          2.5851754621        0.6942832316        1.7226970251
 O          2.5000582563        1.2968271654        2.8136552942
 O          1.7322710030        0.6348177315       -1.7858763113
 C          1.4053234593        2.4650039324        0.4203175772
 C         -0.0479590733        2.2237531249        0.0902130020
 C         -0.7038148514        2.7849604613       -0.9961950010
 C         -2.0277573070        2.4698263508       -1.2529340075
 C         -2.7234068099        1.5981500074       -0.4354176630
 C         -2.0779815564        1.0384850582        0.6599128155
 C         -0.7559290657        1.3582336310        0.9163888269
 H         -0.2510460957        0.9144858312        1.7672013500
 N         -2.7819720122        0.1393765906        1.4954992458
 S         -3.1251287422       -1.3511379781        0.7852467188
 O         -3.3446550378       -2.2591550546        1.8908707439
 O         -2.1020696169       -1.7327698272       -0.1629612529
 C         -4.6675734185       -1.0642245369       -0.0540221158
 C         -5.7783558525       -0.7654873301        0.7110020189
 C         -6.9852355501       -0.5287621284        0.0726474124
 C         -7.0600103358       -0.5959443370       -1.3109196296
 C         -5.9360205534       -0.9002590509       -2.0638171965
 C         -4.7250282322       -1.1373048743       -1.4318117708
 H         -3.8225393035       -1.3704646607       -1.9740911085
 H         -5.9959427963       -0.9521201269       -3.1390272712
 H         -8.0001692297       -0.4104121480       -1.8058846739
 H         -7.8615337442       -0.2923283794        0.6543160537
 H         -5.6747854492       -0.7291483086        1.7825913080
 H         -2.3035175640       -0.0278971472        2.3707186158
 H         -3.7532292653        1.3498598872       -0.6338002143
 H         -2.5234985620        2.9078361258       -2.1056098943
 H         -0.1746324736        3.4573623912       -1.6508020273
 H          1.4573697499        2.8822611011        1.4365462932
 C          2.1078839495        3.4066983245       -0.5329497222
 C          1.9573289245        4.8881367045       -0.3663331091
 C          3.2573697731        4.2241490604       -0.0282231926
 H          4.1037088340        4.3803456324       -0.6800403937
 H          3.5239633154        4.1171642113        1.0134861780
 H          1.9133138145        5.5050387110       -1.2508854930
 H          1.3414440138        5.2386676458        0.4479444822
 H          2.1829973292        3.0067595190       -1.5369880205
