  62
        -98.94032102
 C         -1.7877923258       -0.6839098025        0.9174300719
 C         -2.0351230190       -0.3058768307       -0.4255620133
 C         -3.4327418688       -0.4191841891       -0.8741343202
 C         -4.3712745361       -0.8649041434       -0.0205604322
 C         -5.8350211690       -0.9758587944       -0.3324949595
 C         -6.5821115699        0.3089787342        0.0517524648
 C         -5.9208113659        1.5864679574       -0.4658917822
 H         -6.5511953711        2.4248424471       -0.1613548428
 H         -4.9554384297        1.7148185174        0.0292997359
 C         -5.7175388083        1.6257122464       -1.9869480515
 H         -6.0215558826        2.6080141993       -2.3547779468
 H         -6.3618192026        0.8873617073       -2.4657123457
 C         -4.2726166153        1.4081036086       -2.4404857109
 H         -4.2058526460        1.6731918668       -3.4990091500
 H         -3.6099047119        2.0829303231       -1.8924543460
 C         -3.7336787037       -0.0202383401       -2.2914084995
 H         -4.4270682318       -0.7260134543       -2.7531247125
 H         -2.7808964383       -0.0719256057       -2.8261725095
 H         -7.6018625987        0.2436197456       -0.3319782771
 H         -6.6325058459        0.3673748484        1.1415958282
 H         -6.2467363827       -1.8092047740        0.2394025802
 H         -5.9613456326       -1.1787729499       -1.3941006242
 O         -4.0957917882       -1.2193323035        1.2610111221
 C         -2.8105409965       -1.1134154497        1.7668135565
 O         -2.7079095224       -1.4227088575        2.9708731709
 O         -1.1492071027        0.1057950303       -1.2171792346
 C         -0.4018571713       -0.5775064078        1.5299690016
 C          0.2349430241        0.7364749544        1.1481923853
 C         -0.4521902458        1.9171352759        1.4224675715
 C          0.0851116597        3.1432322838        1.0859419284
 C          1.3350400718        3.2226087393        0.4957646948
 C          2.0349145349        2.0535271504        0.2316327334
 C          1.4807770193        0.8210108918        0.5494193430
 H          2.0312519682       -0.0718672449        0.3076155555
 N          3.3053693535        2.0875313768       -0.3646870387
 S          4.5111561963        1.1072675141        0.2573389833
 O          4.3533996123        0.9134609543        1.6804905413
 O          5.7468737191        1.7328836924       -0.1644603852
 C          4.3392705932       -0.4460789205       -0.5946632652
 C          4.1790200064       -0.4399564458       -1.9659831391
 C          4.0880624640       -1.6507788985       -2.6334456148
 C          4.1649661395       -2.8400897319       -1.9244377668
 C          4.3294260811       -2.8292661670       -0.5476306051
 C          4.4183377485       -1.6212346996        0.1261261735
 H          4.5371190781       -1.5655483304        1.1966602513
 H          4.3864686774       -3.7549167578        0.0030399494
 H          4.0932062181       -3.7811824036       -2.4467154389
 H          3.9563421603       -1.6644106471       -3.7033302104
 H          4.1238899492        0.5026248436       -2.4841763455
 H          3.6509282171        3.0126388318       -0.5750341261
 H          1.7608032283        4.1808110644        0.2382636954
 H         -0.4672257126        4.0478857989        1.2929311497
 H         -1.4246380022        1.8568682577        1.8937080678
 H         -0.5736451123       -0.5566488730        2.6197140740
 C          0.4935194871       -1.7772458687        1.2562456110
 C         -0.0861183155       -3.1337984661        0.9913908669
 C          0.6088148641       -2.3889712367       -0.1065702693
 H          1.5785229180       -2.7372211109       -0.4309148271
 H          0.0135614717       -1.9569209487       -0.8947439837
 H          0.4049985379       -3.9916182467        1.4255077118
 H         -1.1624360234       -3.2205573979        0.9541994155
 H          1.3968707871       -1.7518777836        1.8592370704
