  62
        -98.94265290
 C         -1.9360120812       -1.4460663390        0.0660658802
 C         -1.7049632106       -0.0823385791        0.3689559703
 C         -2.9007756403        0.7124740814        0.6823722402
 C         -4.1120196205        0.1294773220        0.6999273301
 C         -5.4196010602        0.8100745326        1.0008434800
 C         -6.0385098098        1.5303238229       -0.2053399101
 C         -5.3352438092        2.8214940426       -0.6269678800
 H         -5.9972956289        3.3303493729       -1.3304440801
 H         -5.2217204390        3.4718527025        0.2408962000
 C         -3.9707774892        2.6120825419       -1.2988853899
 H         -3.8816459397        1.5734837419       -1.6263345199
 H         -3.9063968389        3.2343237619       -2.1944146399
 C         -2.7701898791        2.9585075414       -0.4181064098
 H         -2.7756056987        4.0280527914       -0.1967337798
 H         -1.8593255992        2.7346563810       -0.9797174698
 C         -2.7189943696        2.1836472114        0.9049082102
 H         -1.7339677196        2.3298436209        1.3548490202
 H         -3.4763454095        2.5611464117        1.5913041401
 H         -6.0655128901        0.8377777529       -1.0500476201
 H         -7.0709438297        1.7737106134        0.0561923398
 H         -6.1095761206        0.0285107729        1.3262309499
 H         -5.2857083000        1.5177693725        1.8194952800
 O         -4.2864629711       -1.1972706379        0.4558991301
 C         -3.2125783915       -2.0104556184        0.1293182602
 O         -3.5172866920       -3.2038877383       -0.0673179699
 H          1.8087597188       -1.6587927507       -0.9344753695
 C          1.6419938386       -1.7986205906        0.1198037505
 C          0.3891828784       -2.1464890601        0.5992520304
 C          0.2209701783       -2.3076026300        1.9727785404
 C          1.2752256483       -2.1058425805        2.8411524305
 C          2.5212877185       -1.7431181110        2.3597718206
 C          2.7042315787       -1.5897405111        0.9907996006
 N          3.9736100888       -1.2734510217        0.4822161907
 S          4.2551695994       -0.2004702919       -0.7655028593
 O          3.5128559193       -0.5920458815       -1.9361594894
 O          5.6959436194       -0.1900880425       -0.9009674992
 C          3.7168491601        1.3974414784       -0.1812439393
 C          4.6783213205        2.3348065380        0.1463472707
 C          4.2779879811        3.5736701181        0.6188730607
 C          2.9269310312        3.8525525688        0.7624810206
 C          1.9766779608        2.8985217092        0.4351826805
 C          2.3684047402        1.6573659090       -0.0426705994
 H          1.6325959799        0.9083049194       -0.2860373795
 H          0.9229614508        3.0974381497        0.5496518304
 H          2.6127347816        4.8163574789        1.1314268206
 H          5.0176689014        4.3154794678        0.8741944807
 H          5.7165058904        2.0749594975        0.0163023808
 H          4.6892608488       -1.1729061820        1.1871953407
 H          3.3457363885       -1.5836452814        3.0380808706
 H          1.1271628181       -2.2277102104        3.9037546705
 H         -0.7547829419       -2.5845798095        2.3497079503
 C         -0.7967550116       -2.3783193995       -0.3061659097
 H         -1.1778847221       -3.3938910194       -0.1058817397
 C         -0.4305774015       -2.3326252397       -1.7827442996
 C         -1.4435862312       -1.9850248092       -2.8311183697
 C         -0.3185258408       -1.0418188298       -2.5346668496
 H          0.4801483993       -0.9356033401       -3.2547775996
 H         -0.5409986505       -0.1324239897       -1.9991312597
 H         -1.4273817014       -2.5352785193       -3.7599314497
 H         -2.4372383111       -1.7180431988       -2.5007375198
 H          0.2797079882       -3.1100369500       -2.0489871496
 O         -0.5702835204        0.4573809604        0.3821064103
