  62
        -98.93926948
 C          2.5378092556        1.1789166100        0.6031934919
 C          3.4055109867        0.9609708860       -0.4957451483
 C          4.4247366873       -0.0814326710       -0.3017128809
 C          4.4807828522       -0.7677805460        0.8528883518
 C          5.4684309544       -1.8498328158        1.1959384343
 C          5.0783953300       -3.2389130739        0.6721884356
 C          5.2232991024       -3.4294622552       -0.8382318372
 H          6.2245317464       -3.1270532989       -1.1467368841
 H          5.1305163238       -4.4992698902       -1.0357247353
 C          4.1761033202       -2.6809102602       -1.6747756253
 H          3.3373189632       -2.3923546494       -1.0364249805
 H          3.7770590348       -3.3494053746       -2.4410293638
 C          4.7067500264       -1.4378940220       -2.3890194824
 H          5.4537919091       -1.7320415180       -3.1295371263
 H          3.8750275307       -0.9658252536       -2.9176468574
 C          5.3297395041       -0.3914455195       -1.4561047779
 H          6.2993021240       -0.7358887356       -1.0975225816
 H          5.4720432824        0.5312551929       -2.0238474421
 H          4.0474268957       -3.4469944873        0.9685803977
 H          5.7208007343       -3.9675219523        1.1722361342
 H          6.4545766408       -1.5802951815        0.8167752564
 H          5.5146104925       -1.8938433943        2.2862585056
 O          3.6228565470       -0.5339823308        1.8827739129
 C          2.6285290634        0.4218565655        1.7743104840
 O          1.8987403148        0.5170538268        2.7834786613
 H         -0.9294768178        1.7640317751        1.8434718842
 C         -0.9470249277        1.3925764827        0.8274846304
 C          0.1756095344        1.5454657146        0.0286507888
 C          0.1547025033        1.0240078173       -1.2621797475
 C         -0.9742345418        0.3843123231       -1.7384935964
 C         -2.0975979021        0.2426298651       -0.9410642381
 C         -2.0777772578        0.7372567271        0.3553532714
 N         -3.2102313851        0.5911681433        1.1736493442
 S         -3.9567180287       -0.9113577881        1.2475741069
 O         -4.6423375687       -0.9263757235        2.5212309635
 O         -3.0205342052       -1.9848202475        1.0066640965
 C         -5.1663133722       -0.8454779742       -0.0583398137
 C         -6.0470246806        0.2183781895       -0.0790118341
 C         -6.9995785329        0.2786883583       -1.0835177909
 C         -7.0581649830       -0.7218577211       -2.0423236798
 C         -6.1698844518       -1.7856502810       -2.0051466705
 C         -5.2133331896       -1.8511336408       -1.0038121279
 H         -4.4977448932       -2.6554864946       -0.9388518617
 H         -6.2170403080       -2.5631090803       -2.7507026094
 H         -7.8003173530       -0.6723419411       -2.8233652083
 H         -7.6920179276        1.1043429452       -1.1160169080
 H         -5.9705725801        0.9731180885        0.6856176563
 H         -3.0935538802        0.9760656615        2.1001406162
 H         -2.9763203640       -0.2624270695       -1.3073515080
 H         -0.9808444225       -0.0125374077       -2.7424223695
 H          1.0364137256        1.1210152594       -1.8776524634
 C          1.4130524890        2.2027525911        0.5831796450
 H          1.2192246601        2.4330229955        1.6426270724
 C          1.7920501119        3.5065018553       -0.1060181646
 C          1.0710988800        4.0579409420       -1.2965167275
 C          0.8994551077        4.7037028059        0.0428558512
 H          1.3497447388        5.6685272195        0.2206826349
 H         -0.0424765608        4.5556990776        0.5502042122
 H          0.2412576698        3.4995483895       -1.6996015822
 H          1.6620989258        4.5626559193       -2.0454419297
 H          2.8593736758        3.6934720099       -0.0666042748
 O          3.3548013347        1.5907886712       -1.5818472314
