  62
        -98.93492242
 C         -2.5504093768       -1.2521673154        0.4099239409
 C         -2.4001380186       -0.4860434387       -0.7709823841
 C         -3.1986933401        0.7538509956       -0.8525947226
 C         -4.0007404673        1.0898964299        0.1714393988
 C         -4.8480083477        2.3245432517        0.3087139096
 C         -4.0889629139        3.4194778014        1.0771386722
 C         -3.1994840923        4.3149128188        0.2149776044
 H         -3.8293451768        4.9724738317       -0.3877416279
 H         -2.6192702057        4.9466924980        0.8916283847
 C         -2.2329649439        3.5793177504       -0.7176757060
 H         -1.4309043946        4.2708932318       -0.9846020980
 H         -1.7659385267        2.7455918111       -0.1884936813
 C         -2.9032176996        3.0740495784       -2.0042536613
 H         -3.8857090756        3.5365642622       -2.0984275113
 H         -2.3200436046        3.4042972090       -2.8663636455
 C         -3.0354032202        1.5481713602       -2.1195421797
 H         -3.8669086306        1.3118087497       -2.7920495976
 H         -2.1309488980        1.1421799571       -2.5844129599
 H         -3.4841630423        2.9310747040        1.8458455056
 H         -4.8137190162        4.0561562887        1.5883750231
 H         -5.1734710915        2.6795501921       -0.6643532863
 H         -5.7254606220        2.0368442505        0.8916472915
 O         -4.1007302941        0.3337121189        1.2997949019
 C         -3.3687594488       -0.8287186380        1.4589825918
 O         -3.5230175056       -1.3839000430        2.5654403323
 H         -0.1912259302       -0.6182680223        1.6005743800
 C          0.3495094831       -1.2237737686        0.8814976751
 C         -0.3068958609       -2.2833409723        0.2663688017
 C          0.3920534761       -3.0449361070       -0.6596515762
 C          1.7080355639       -2.7411196035       -0.9634831312
 C          2.3540253693       -1.6813132810       -0.3544968599
 C          1.6628672763       -0.9105144497        0.5713180074
 N          2.3096845002        0.1686417659        1.2020869348
 S          3.0757806477        1.3058326101        0.2291597620
 O          3.0905232990        2.5199490334        1.0172617356
 O          2.4678030180        1.3944079579       -1.0774835422
 C          4.7392567167        0.6858420019        0.0930173481
 C          5.2851069474        0.4441399446       -1.1522651352
 C          6.5835097156       -0.0351400219       -1.2328952295
 C          7.3088213334       -0.2617671146       -0.0732334318
 C          6.7468689651       -0.0108131159        1.1698328849
 C          5.4499375207        0.4690831200        1.2572919240
 H          4.9772636984        0.6810576814        2.2017436989
 H          7.3141752325       -0.1879017558        2.0693173702
 H          8.3183335461       -0.6357726146       -0.1387282130
 H          7.0219682398       -0.2300588758       -2.1983942902
 H          4.6804694928        0.6302143375       -2.0258029230
 H          1.7327235060        0.6350359125        1.8875714055
 H          3.3752194302       -1.4366710004       -0.5971974561
 H          2.2372631286       -3.3366970082       -1.6916926906
 H         -0.1010923096       -3.8578682234       -1.1663625698
 C         -1.7491114745       -2.5223310164        0.6438172102
 H         -1.7861018413       -2.6806662378        1.7348440451
 C         -2.3453650134       -3.7691661670        0.0084953754
 C         -3.8187269457       -3.8764047681       -0.2457888707
 C         -2.8644365879       -3.7854521577       -1.3965911420
 H         -2.6983571753       -4.6707929901       -1.9929369275
 H         -2.8154625985       -2.8656941373       -1.9571219750
 H         -4.3047159810       -4.8205249491       -0.0504133590
 H         -4.4304758084       -3.0155604959       -0.0169201867
 H         -1.8545382753       -4.6725175897        0.3573653187
 O         -1.6354669191       -0.8040765651       -1.7177800125
