  62
        -98.94122753
 C         -1.6318910772       -0.3057667543        0.2878734057
 C         -2.7724911517       -1.0111434426       -0.1671676836
 C         -3.8615809471       -0.1856431878       -0.7140764470
 C         -3.7129966022        1.1485136677       -0.7902962367
 C         -4.7612405299        2.1048245946       -1.2787943496
 C         -5.6408137826        2.6031803263       -0.1234398750
 C         -6.1770579032        1.4860239940        0.7717624911
 H         -5.3409295121        1.0145312848        1.2932028409
 H         -6.8073573431        1.9527237351        1.5318882939
 C         -6.9824228134        0.4096275303        0.0307677583
 H         -7.8853566520        0.1905525088        0.6047486362
 H         -7.3009529079        0.7883032800       -0.9411434232
 C         -6.2433352257       -0.9161581057       -0.1598069483
 H         -5.8435025449       -1.2538850672        0.7996609498
 H         -6.9677510101       -1.6640381372       -0.4934094326
 C         -5.0986185843       -0.9009438698       -1.1805952632
 H         -5.4529910421       -0.4823871129       -2.1246928370
 H         -4.7969499306       -1.9376170772       -1.3563103322
 H         -5.0485981248        3.2819073364        0.4946182411
 H         -6.4755147484        3.1672880193       -0.5435977584
 H         -4.2601027113        2.9592173595       -1.7366985419
 H         -5.3752062323        1.6110872522       -2.0295108250
 O         -2.5889592925        1.7886650025       -0.3798609894
 C         -1.5340053431        1.0853162669        0.1734921646
 O         -0.5744729280        1.7998668051        0.5255218284
 O         -2.9022271116       -2.2635640002       -0.1296848774
 C         -0.4201168583       -0.9842337759        0.9069624923
 C          0.4990603375       -1.5379615948       -0.1555315488
 C          0.1145234102       -2.5919893094       -0.9775069769
 C          0.9869328891       -3.0869575106       -1.9290113854
 C          2.2586346393       -2.5584088365       -2.0654663764
 C          2.6506630632       -1.5018930711       -1.2518358835
 C          1.7645032070       -0.9919843232       -0.3134427531
 H          2.0664706578       -0.1611890344        0.3057961946
 N          3.9244458782       -0.9335478069       -1.3796690405
 S          4.7359495530       -0.3293332810       -0.0493187222
 O          6.1261272997       -0.3225130541       -0.4526074023
 O          4.4277991779       -1.0739043807        1.1491092565
 C          4.1695259364        1.3511646047        0.0933634497
 C          4.2286367538        2.1574590128       -1.0257488903
 C          3.8116913598        3.4743933779       -0.9235988535
 C          3.3476864016        3.9608250206        0.2891970997
 C          3.2981293094        3.1397365610        1.4044075638
 C          3.7135964513        1.8214142155        1.3081711129
 H          3.6850821924        1.1475275591        2.1504055001
 H          2.9320424400        3.5182307956        2.3452614769
 H          3.0194661557        4.9853224534        0.3666230858
 H          3.8466455437        4.1172448013       -1.7885271252
 H          4.5973461522        1.7447842750       -1.9500612797
 H          4.5419921440       -1.3997552500       -2.0275851018
 H          2.9431269116       -2.9568621908       -2.7990042938
 H          0.6780200072       -3.9028350711       -2.5650887699
 H         -0.8753918350       -3.0075975495       -0.8706813593
 H          0.1279423885       -0.1883531731        1.4296274742
 C         -0.7738725946       -2.0584443955        1.9177890083
 C          0.2910800203       -2.5312517819        2.8596399384
 C         -0.8492411691       -1.7034118773        3.3705481464
 H         -1.6013093490       -2.1820873083        3.9798358306
 H         -0.6511580021       -0.6778351910        3.6471784516
 H          0.3216371701       -3.5787721819        3.1179327733
 H          1.2663685367       -2.0720663702        2.7844855544
 H         -1.4784342133       -2.7895952898        1.5449583595
