  62
        -98.94665858
 C          1.4653865850        1.4632435633       -0.4287925035
 C          2.7330422707        1.3888505366        0.2013453084
 C          3.5345583820        0.2001013763       -0.1067499907
 C          3.0455144900       -0.7353568545       -0.9413044969
 C          3.7507658359       -1.9951338022       -1.3668784768
 C          3.6192082333       -3.1594465613       -0.3752665203
 C          4.4206033106       -3.0094048690        0.9181329487
 H          4.4078062222       -3.9802440264        1.4176782171
 H          5.4597333259       -2.7819590075        0.6783712988
 C          3.8693034418       -1.9503099680        1.8831300894
 H          2.8429968251       -1.6993633059        1.6047495648
 H          3.8357074936       -2.3602950036        2.8950945612
 C          4.6903182074       -0.6623837373        1.9421552339
 H          5.6829041843       -0.8773695730        2.3443274647
 H          4.1935067055        0.0307301012        2.6258168376
 C          4.8529693765        0.0416464270        0.5886980090
 H          5.5521159277       -0.5091216934       -0.0402633299
 H          5.2567107136        1.0411045179        0.7685262758
 H          3.9622638487       -4.0621340381       -0.8861575578
 H          2.5642706063       -3.2953921314       -0.1296965074
 H          3.3018616021       -2.2966309090       -2.3156621410
 H          4.8064807391       -1.7817780701       -1.5374844527
 O          1.8286514667       -0.6224463908       -1.5337450082
 C          1.0014297988        0.4630363966       -1.2848860471
 O         -0.0862372146        0.4175088790       -1.8888301054
 O          3.1740379592        2.2759324842        0.9795251214
 C          0.5718341956        2.6483479309       -0.0983849665
 C         -0.5861270700        2.1102478769        0.7027964264
 C         -0.4196489684        1.8700085508        2.0639698568
 C         -1.4220175587        1.2721373319        2.8048388388
 C         -2.6047543788        0.8819917747        2.1997698599
 C         -2.7740570839        1.1079677658        0.8406614279
 C         -1.7810075490        1.7399015922        0.1050963430
 H         -1.9274714673        1.9022680731       -0.9505613171
 N         -3.9581854627        0.6732622229        0.2050803623
 S         -4.2423926809       -0.9782276909        0.2327184896
 O         -5.2912905736       -1.2022847557       -0.7364158923
 O         -4.5365474335       -1.3745636991        1.5873964830
 C         -2.7298475206       -1.7510384780       -0.3101380234
 C         -1.7399549183       -2.0219752627        0.6123632253
 C         -0.5552093437       -2.5886266383        0.1722576494
 C         -0.3814885618       -2.8740763404       -1.1723512026
 C         -1.3840121582       -2.5919368528       -2.0856880439
 C         -2.5683138907       -2.0201597397       -1.6537017515
 H         -3.3728024743       -1.7865715620       -2.3327915817
 H         -1.2399049752       -2.8050545987       -3.1326596868
 H          0.5438781023       -3.3099364775       -1.5151728804
 H          0.2299761054       -2.7990262617        0.8826443850
 H         -1.9107577514       -1.7923727259        1.6516633728
 H         -4.0232327368        0.9950157458       -0.7511733404
 H         -3.3861052217        0.3863209495        2.7529134665
 H         -1.2802698615        1.0988716835        3.8610136222
 H          0.5159214596        2.1447309984        2.5310533958
 H          1.1733736663        3.2970403525        0.5519345999
 C          0.1659092713        3.4310075414       -1.3284963746
 C         -0.4381383106        4.7926414319       -1.1624127883
 C          0.9484509503        4.6495274744       -1.7120831130
 H          1.1110889154        4.8475024710       -2.7609828039
 H          1.7801057704        4.9289817021       -1.0820998926
 H         -1.2290000001        5.0931111279       -1.8326503516
 H         -0.5489365989        5.1681005023       -0.1563294261
 H         -0.2005094000        2.8081338300       -2.1352148098
