  62
        -98.94737156
 C         -1.8011960638       -1.1380913035       -0.4494914455
 C         -1.2764549115       -1.8402031958        0.6655357548
 C         -0.1670676880       -2.7669716649        0.3756059903
 C          0.2989788169       -2.8807010372       -0.8800362954
 C          1.4592176564       -3.7348355629       -1.2993366362
 C          2.7827338363       -2.9603776791       -1.2384366362
 C          3.0283195920       -2.2445209284        0.0900300493
 H          4.0196945374       -1.7882317113        0.0362910516
 H          2.3134924033       -1.4271699843        0.2066006185
 C          2.9468567507       -3.1467595430        1.3286402106
 H          3.7810949176       -2.9056253854        1.9908485820
 H          3.0521247526       -4.1935821398        1.0389525021
 C          1.6665351868       -2.9670029346        2.1472059740
 H          1.5039896221       -1.9024575024        2.3358843870
 H          1.8100639012       -3.4528306496        3.1167518031
 C          0.3907994276       -3.5532334977        1.5281220445
 H          0.5679641042       -4.5906523075        1.2334562724
 H         -0.3843765749       -3.5428499215        2.3003048794
 H          3.5974354975       -3.6620468608       -1.4272101633
 H          2.7862951496       -2.2113973036       -2.0336464890
 H          1.5095363886       -4.6103263071       -0.6547629046
 H          1.2885370617       -4.0609595979       -2.3269123337
 O         -0.2262313945       -2.1908816582       -1.9245377134
 C         -1.2757929530       -1.3079621467       -1.7342648430
 O         -1.6540789937       -0.7379021068       -2.7772457241
 H         -0.9037235737        0.6574061754        1.3143822052
 C         -1.2759056672        1.4788511838        0.7218030811
 C         -2.3216757961        1.2793433097       -0.1674496924
 C         -2.7991114432        2.3663243307       -0.8904119308
 C         -2.2333158316        3.6186387625       -0.7343617217
 C         -1.1587641792        3.8027108896        0.1172004558
 C         -0.6723085579        2.7224435973        0.8440174116
 N          0.4407668816        2.8661981158        1.6928543098
 S          1.7140506686        1.7889798753        1.5317468504
 O          1.3293098962        0.4857470256        2.0017765114
 O          2.8111836657        2.4235233868        2.2295544837
 C          2.0596662123        1.7476656916       -0.2169745781
 C          1.3521171593        0.8805563180       -1.0243117968
 C          1.5773569741        0.8961137788       -2.3914278868
 C          2.5091783544        1.7726452103       -2.9254124985
 C          3.2185448926        2.6339264198       -2.1012940010
 C          2.9889240441        2.6285523220       -0.7350657051
 H          3.5205199324        3.2771558982       -0.0576977667
 H          3.9451774009        3.3108605809       -2.5208741313
 H          2.6813343285        1.7812329483       -3.9901402272
 H          1.0101991266        0.2291275485       -3.0230042493
 H          0.6335159857        0.2069534808       -0.5839756492
 H          0.7968467134        3.8104294597        1.7450070102
 H         -0.6962657047        4.7726479959        0.2187330089
 H         -2.6159926340        4.4551793736       -1.2984577392
 H         -3.6086342537        2.2211941259       -1.5896045355
 C         -2.9097841201       -0.1002965706       -0.3621570271
 H         -3.4064524627       -0.1083537395       -1.3430294517
 C         -3.9544155866       -0.3798349104        0.6994495902
 C         -5.3481158414        0.1352173199        0.5074450293
 C         -5.0697589257       -1.3334667908        0.3996459662
 H         -5.4096381998       -1.9884960811        1.1874248976
 H         -5.0887927836       -1.7859236832       -0.5814175296
 H         -5.5662400384        0.6746332361       -0.4016265095
 H         -5.8851165262        0.4946274928        1.3716644027
 H         -3.5534894888       -0.3865276916        1.7043958414
 O         -1.6951359608       -1.7242412011        1.8469017187
