  62
        -98.93468387
 C          2.5577687342        0.5824005386        0.4177648755
 C          2.8107855393       -0.8092509167        0.3030750164
 C          4.0588325925       -1.1929662734       -0.3629306701
 C          4.8728304869       -0.2380820597       -0.8476446345
 C          6.1689466284       -0.4645591484       -1.5776360574
 C          7.3758188994       -0.6822743478       -0.6547636168
 C          7.4125973120       -2.0336213867        0.0600909376
 H          7.2894439891       -2.8332281336       -0.6710078365
 H          8.4089548906       -2.1394109803        0.4938988725
 C          6.3696987507       -2.1882989577        1.1758497038
 H          6.8455319753       -2.6123927019        2.0629495992
 H          5.9885739217       -1.2038391901        1.4570575266
 C          5.1888538802       -3.0914214666        0.8195226635
 H          5.5425575236       -4.1129746466        0.6635754975
 H          4.4965177453       -3.0997313199        1.6651469423
 C          4.4089675421       -2.6490996555       -0.4255711736
 H          3.4741037125       -3.2135016098       -0.4643622323
 H          4.9843876568       -2.8632127430       -1.3260465326
 H          8.2750114029       -0.5957741155       -1.2690917336
 H          7.3998638989        0.1220197691        0.0841565962
 H          6.3494279313        0.4314822321       -2.1754167400
 H          6.0656156341       -1.3161149398       -2.2508619235
 O          4.5861460585        1.0847807176       -0.7414088531
 C          3.4335207831        1.5352229166       -0.1043968496
 O          3.3319016051        2.7750587007       -0.0838732756
 O          2.0252456753       -1.6903075070        0.7450444220
 C          1.2684254892        0.9750746178        1.1166198069
 C          0.1442281676        1.0808128636        0.1171595404
 C          0.2590596901        1.8844805090       -1.0129918255
 C         -0.7796504286        1.9636909592       -1.9224346539
 C         -1.9440077836        1.2397850033       -1.7328498033
 C         -2.0668566772        0.4296107447       -0.6121871845
 C         -1.0269634218        0.3635676861        0.3086268415
 H         -1.1198903894       -0.2763480141        1.1756180472
 N         -3.2275173998       -0.3400686028       -0.4262610448
 S         -4.7186778521        0.3493604855       -0.8153090191
 O         -4.8944249703        0.2823242486       -2.2444440315
 O         -4.8262610317        1.6657410891       -0.2270571478
 C         -5.8333561146       -0.7881744079       -0.0179347863
 C         -6.0301540241       -2.0283092760       -0.5959703290
 C         -6.8836978430       -2.9269906043        0.0234418992
 C         -7.5230204760       -2.5725297107        1.2025169004
 C         -7.3159468926       -1.3242499449        1.7695988242
 C         -6.4616701721       -0.4208971969        1.1564736468
 H         -6.2755057141        0.5625263978        1.5574396614
 H         -7.8161749427       -1.0513268395        2.6848198315
 H         -8.1888988381       -3.2730035996        1.6813039982
 H         -7.0484083331       -3.8982290413       -0.4145202332
 H         -5.5199929359       -2.2569079361       -1.5171003668
 H         -3.2518442997       -0.7868541091        0.4800615801
 H         -2.7570803034        1.2944435922       -2.4385386859
 H         -0.6818055414        2.5950597286       -2.7932109605
 H          1.1681581101        2.4463363260       -1.1677822891
 H          1.0401938786        0.1217326220        1.7751409483
 C          1.4029679636        2.2038438738        2.0041461545
 C          0.7544975668        3.5202189127        1.7122120518
 C          0.2339586469        2.6638029220        2.8247946336
 H          0.4047121748        2.9733906618        3.8445903435
 H         -0.7109972146        2.1660160245        2.6644817098
 H          1.3095971760        4.4135088130        1.9544125487
 H          0.1567864028        3.6118478237        0.8191119067
 H          2.3767932108        2.2504560937        2.4808616077
