  62
        -98.94486101
 C         -1.9354036206       -0.5477949595       -0.5981013799
 C         -3.0120397204       -1.3219880699       -0.1013316102
 C         -4.3455874405       -0.7272028899       -0.2398208197
 C         -4.4814290507        0.4756472204       -0.8273180391
 C         -5.7773653308        1.2025448804       -1.0652272585
 C         -6.2692798207        2.0137409797        0.1413334620
 C         -6.8178516805        1.1840086791        1.3028462116
 H         -7.3216525505        1.8761082387        1.9805570120
 H         -7.5706800805        0.4899413192        0.9278821714
 C         -5.7493567003        0.4123801688        2.0898033611
 H         -5.9187130702        0.5459985682        3.1606314312
 H         -4.7634775404        0.8275851090        1.8677332012
 C         -5.7259721202       -1.0919910711        1.8190424503
 H         -4.9122814201       -1.5323335413        2.4007981400
 H         -6.6626653601       -1.5398336813        2.1581160402
 C         -5.5112143104       -1.4654709003        0.3463508701
 H         -5.2892235603       -2.5340031403        0.2922974595
 H         -6.4156129605       -1.2665763701       -0.2280731697
 H         -7.0642701108        2.6740878098       -0.2128467776
 H         -5.4493820607        2.6422331296        0.4968341122
 H         -5.5986019810        1.8917504708       -1.8933904082
 H         -6.5472342408        0.4911029804       -1.3653479988
 O         -3.4224770409        1.1819058807       -1.3053740689
 C         -2.1247088608        0.7025079808       -1.1866001093
 O         -1.2549416009        1.4687478611       -1.6424996390
 H          1.7291528592        0.3950353711       -1.1226985900
 C          1.4094287894        0.5100434706       -0.1013976399
 C          0.3010004195       -0.1692510698        0.3766897499
 C         -0.0900581603        0.0361281695        1.6986499501
 C          0.6029691997        0.9083632892        2.5137609504
 C          1.7079243796        1.5887403395        2.0309867306
 C          2.1075765694        1.3915486202        0.7152593805
 N          3.2085330993        2.0918296706        0.1981618207
 S          4.3570668992        1.3337418712       -0.7471210599
 O          5.4600055191        2.2684204313       -0.7894619496
 O          3.7978655391        0.9475279617       -2.0166112800
 C          4.8254888495       -0.1079973493        0.1923760493
 C          5.7653581596        0.0396177203        1.1942357893
 C          6.0968215798       -1.0586909701        1.9704766487
 C          5.4791707899       -2.2785842400        1.7386266581
 C          4.5372110798       -2.4096870696        0.7301536982
 C          4.2039662596       -1.3154224392       -0.0528040212
 H          3.4799645495       -1.3810329689       -0.8477167011
 H          4.0592474498       -3.3591869195        0.5487609678
 H          5.7348271401       -3.1331803503        2.3450224277
 H          6.8323259399       -0.9609548804        2.7526561086
 H          6.2294112495        1.0026338603        1.3330802897
 H          3.6461475093        2.7232502503        0.8528756009
 H          2.2471526996        2.2782085692        2.6627377009
 H          0.2843736098        1.0606862286        3.5339402006
 H         -0.9565448902       -0.4925749508        2.0719866900
 C         -0.5250101105       -1.0994837794       -0.4755097204
 H         -0.6352189604       -2.0524999197        0.0623092191
 C          0.0617113593       -1.3797009287       -1.8417322306
 C          1.1215823794       -2.4270941485       -2.0006249313
 C         -0.2630060907       -2.6772522584       -2.5168309712
 H         -0.4266803208       -2.6757804479       -3.5840313212
 H         -0.8916001505       -3.3722328087       -1.9794101115
 H          1.9126276593       -2.2540263381       -2.7155943813
 H          1.4291756396       -2.9615475989       -1.1143457916
 H          0.1185425291       -0.4967089184       -2.4687128202
 O         -2.8645363603       -2.4542192601        0.4313108092
