  62
        -98.94208784
 C         -0.5977294734       -1.4445108059        0.0527676049
 C         -1.3926241339       -0.8500895027        1.0566368380
 C         -2.4339002827        0.0956043042        0.6103148420
 C         -2.5373620638        0.3699867592       -0.7037325807
 C         -3.5732921391        1.2100407154       -1.4022626653
 C         -4.9291485470        0.4936528198       -1.5143296379
 C         -5.3992949678       -0.1971615177       -0.2370345773
 H         -6.3193491061       -0.7388175117       -0.4721814065
 H         -4.6569145435       -0.9383352459        0.0646476944
 C         -5.6935977245        0.7335700549        0.9373656799
 H         -6.1138623932        0.1201174574        1.7385022756
 H         -6.4561316482        1.4567885752        0.6399293883
 C         -4.4938766382        1.4960999408        1.5050358695
 H         -4.7946172908        1.8996150636        2.4764474842
 H         -4.2426906599        2.3497466431        0.8813881469
 C         -3.2566877178        0.6386535661        1.7538543453
 H         -2.5547200025        1.2059875117        2.3779210856
 H         -3.5395598826       -0.2281066774        2.3622798354
 H         -5.6774446206        1.2213922118       -1.8327569133
 H         -4.8466777716       -0.2686376432       -2.2928147295
 H         -3.6877461358        2.1668363430       -0.9036302195
 H         -3.1966091967        1.3952735411       -2.4099568462
 O         -1.6915182941       -0.1677761193       -1.6281098838
 C         -0.7192810034       -1.0888906326       -1.2897295955
 O         -0.0442817898       -1.5069155660       -2.2492326796
 O         -1.2605674861       -1.1138012798        2.2843243384
 C          0.4193537462       -2.5002529568        0.4395567645
 C          1.8032238932       -2.1269914964       -0.0290220694
 C          2.6924104482       -3.0449225110       -0.5734797032
 C          3.9577163828       -2.6445451084       -0.9660714413
 C          4.3638821833       -1.3318580995       -0.8191249441
 C          3.4825612665       -0.4053752601       -0.2708326070
 C          2.2169607811       -0.8094636822        0.1207930308
 H          1.5383051502       -0.0911162948        0.5573969412
 N          3.8535382277        0.9364420871       -0.1448403659
 S          3.0710212887        2.0107782866        0.8499696318
 O          3.9306480802        3.1762231055        0.8490720594
 O          2.7878728951        1.4471035888        2.1496697852
 C          1.5638439716        2.4165115536       -0.0038322510
 C          1.6056692975        2.6130325891       -1.3694309915
 C          0.4506697425        3.0083262824       -2.0238783300
 C         -0.7164130355        3.2116076636       -1.3047220293
 C         -0.7444332500        3.0026924696        0.0649587599
 C          0.4053710414        2.5988519027        0.7237051449
 H          0.4231461390        2.4129552449        1.7866711848
 H         -1.6527116652        3.1531654781        0.6258287822
 H         -1.6094302799        3.5336503159       -1.8159532040
 H          0.4642682646        3.1588958028       -3.0913562337
 H          2.5311972915        2.4530271874       -1.8971871531
 H          4.8181223359        1.1633325051       -0.3281150224
 H          5.3496515832       -1.0200927103       -1.1280294419
 H          4.6381487840       -3.3664312176       -1.3916194161
 H          2.3949563115       -4.0735577713       -0.6938262146
 H          0.4270396028       -2.5124208537        1.5406217854
 C         -0.0384702546       -3.8565953631       -0.0594877071
 C          0.2883224394       -5.1019878609        0.7076000413
 C         -1.1149897986       -4.5772188949        0.6934777103
 H         -1.8647582031       -5.1165988780        0.1343063489
 H         -1.4940239759       -4.1030634654        1.5872521151
 H          0.5003802161       -6.0064496939        0.1574724653
 H          0.8590240955       -4.9937253753        1.6176319094
 H         -0.0630915035       -3.9114279650       -1.1424049020
