  62
        -98.94278989
 C         -2.4515991116       -0.9356092836        0.4915257593
 C         -2.4524087686        0.1843074294       -0.3750170210
 C         -3.4957475702        1.1858747534       -0.1178839704
 C         -4.3559964581        1.0133571743        0.9017247779
 C         -5.4527765434        1.9607369537        1.3064560849
 C         -6.7506093337        1.7970202236        0.5036509202
 C         -6.6927569697        2.3048704821       -0.9375735372
 H         -7.7191130833        2.3324154613       -1.3089576193
 H         -6.3162488010        3.3282000599       -0.9462477826
 C         -5.8498329257        1.4357961422       -1.8812505045
 H         -5.6891163445        0.4552946753       -1.4271148129
 H         -6.3979459580        1.2712299084       -2.8117357137
 C         -4.4941576648        2.0358366849       -2.2539273084
 H         -4.6445762467        2.9530543178       -2.8276748937
 H         -3.9673342645        1.3219956793       -2.8922690601
 C         -3.5927781627        2.3530138398       -1.0535956147
 H         -3.9626430684        3.2329468634       -0.5278141222
 H         -2.5869222677        2.5631369584       -1.4254225620
 H         -7.5309101482        2.3512187284        1.0303577014
 H         -7.0329682051        0.7417148198        0.5071678050
 H         -5.6695157488        1.7534443898        2.3565822713
 H         -5.0982753749        2.9883789756        1.2213485216
 O         -4.3090742226       -0.0693366751        1.7233610585
 C         -3.3672555455       -1.0668978236        1.5369418941
 O         -3.4432115660       -2.0039399983        2.3574214835
 O         -1.6315982806        0.3484126387       -1.3145710245
 C         -1.4124530103       -2.0341477059        0.3356827602
 C         -0.0523466466       -1.4459926281        0.6238005805
 C          0.2542154024       -1.0932840286        1.9359655197
 C          1.4704068900       -0.5167354578        2.2460385330
 C          2.4040810201       -0.2684330290        1.2540264108
 C          2.1092063745       -0.6168360486       -0.0562666819
 C          0.8908338374       -1.2127726648       -0.3628544818
 H          0.6736565129       -1.4709208017       -1.3871336539
 N          3.0333945601       -0.3424200562       -1.0737840291
 S          4.6635916173       -0.6293624444       -0.8377266693
 O          5.2171696581       -0.7650898369       -2.1673177890
 O          4.8843846143       -1.7364972128        0.0636213430
 C          5.2673495708        0.8802759884       -0.1110113183
 C          6.0210469119        0.8342878176        1.0453374425
 C          6.4937859054        2.0202219222        1.5855462562
 C          6.2068850590        3.2248950739        0.9623467459
 C          5.4503505709        3.2539471699       -0.1997850918
 C          4.9761526962        2.0718851084       -0.7455537937
 H          4.3864428072        2.0537321179       -1.6469633655
 H          5.2280629406        4.1926900220       -0.6812738424
 H          6.5745037286        4.1468092808        1.3846113730
 H          7.0822323032        1.9995885843        2.4887651316
 H          6.2144097426       -0.1247284872        1.4992114477
 H          2.7282678798       -0.6084447174       -1.9977989112
 H          3.3525098953        0.1864836134        1.4883095296
 H          1.6942267287       -0.2515470469        3.2682662494
 H         -0.4816863413       -1.2750165074        2.7077406345
 H         -1.6339451615       -2.7732104592        1.1178682610
 C         -1.5244946611       -2.7079551391       -1.0152855178
 C         -0.8892472664       -4.0484009343       -1.2273410075
 C         -2.3812810335       -3.9288040334       -1.1523853405
 H         -2.9552396727       -4.0566577593       -2.0579857738
 H         -2.8805063233       -4.2903211472       -0.2651413810
 H         -0.4386300158       -4.2627993176       -2.1847225940
 H         -0.3722646703       -4.4926286924       -0.3899904001
 H         -1.5259842696       -2.0076652617       -1.8418765189
