  62
        -98.94093117
 C         -1.7194475500       -0.0953808708        0.9310084998
 C         -2.9208429101       -0.8359234805        0.8121741190
 C         -4.1375064600       -0.0505122201        0.5497810502
 C         -4.0552110800        1.2857265001        0.4252154121
 C         -5.2031769699        2.1912485006        0.0875463335
 C         -5.3283102401        2.3872007828       -1.4300697762
 C         -5.2994329803        1.0831647239       -2.2274874580
 H         -4.3130415604        0.6244977337       -2.1260957988
 H         -5.4251554005        1.3436066553       -3.2807118577
 C         -6.3748255004        0.0658964234       -1.8211999093
 H         -6.8289755305       -0.3439638553       -2.7258801898
 H         -7.1653115302        0.5660217127       -1.2604073785
 C         -5.8509924303       -1.1201157678       -1.0094261110
 H         -4.9986183104       -1.5693503771       -1.5253038918
 H         -6.6401160004       -1.8754358078       -0.9627588520
 C         -5.4310992401       -0.8069800298        0.4321545794
 H         -5.2695860601       -1.7598571505        0.9445386780
 H         -6.2361127400       -0.2747947605        0.9427694102
 H         -4.4985424301        3.0123092532       -1.7678422455
 H         -6.2594549401        2.9192456731       -1.6334338954
 H         -5.0259841398        3.1605588400        0.5564866348
 H         -6.1229907299        1.7683626902        0.4868376530
 O         -2.8864034199        1.9644859298        0.5452076329
 C         -1.7010538499        1.2974981994        0.7956473718
 O         -0.7058368598        2.0443709892        0.8824340727
 O         -3.0036412202       -2.0894565107        0.9116663072
 C         -0.3640681300       -0.7259070013        1.2039883788
 C          0.2780405198       -1.2619218896       -0.0534166520
 C         -0.3502224504       -2.2139255984       -0.8488957133
 C          0.2804687894       -2.7056960669       -1.9768703640
 C          1.5534497394       -2.2817316565       -2.3167649336
 C          2.1918036996       -1.3351577777       -1.5248670924
 C          1.5432069698       -0.8207249192       -0.4113208916
 H          2.0355217799       -0.0699928800        0.1876875994
 N          3.4806921396       -0.8801532873       -1.8367943919
 S          4.5824955598       -0.6043474091       -0.6063546917
 O          5.8750204397       -0.7055470883       -1.2496235820
 O          4.3587950898       -1.4867340107        0.5144731971
 C          4.3075392499        1.0876337202       -0.1290621693
 C          4.1146892001        1.4000313584        1.2017339511
 C          3.9209683503        2.7248073479        1.5589162230
 C          3.9258789002        3.7092133093        0.5832418844
 C          4.1253637400        3.3796815611       -0.7488742461
 C          4.3195966299        2.0569982216       -1.1120322880
 H          4.4795055797        1.7626342630       -2.1358795484
 H          4.1270429600        4.1494595821       -1.5037829450
 H          3.7710011104        4.7390004689        0.8640900158
 H          3.7625451905        2.9824947265        2.5939051334
 H          4.1123495402        0.6023578374        1.9284474200
 H          3.9098182894       -1.3281605063       -2.6332908526
 H          2.0503895593       -2.6801601954       -3.1884726242
 H         -0.2183380307       -3.4400652360       -2.5914829150
 H         -1.3329664804       -2.5639359787       -0.5730516336
 H          0.2721504501        0.0909492382        1.5712841398
 C         -0.3950969100       -1.8146142127        2.2615763273
 C          0.9014553801       -2.2704461037        2.8584701365
 C         -0.0639371997       -1.4718219647        3.6810410577
 H         -0.6037512597       -1.9715350458        4.4714544071
 H          0.1831182004       -0.4436955351        3.9031274291
 H          1.0216482000       -3.3194701240        3.0828654450
 H          1.8094948001       -1.7954185733        2.5157016070
 H         -1.1595523800       -2.5602785924        2.0887981763
