  62
        -98.94480196
 C         -1.9970767016        1.0910713293        0.3008675627
 C         -3.0893980265        1.1871702314       -0.6026511498
 C         -4.3306381265        0.5201314186       -0.1992648297
 C         -4.3880381503       -0.1187529753        0.9829630870
 C         -5.5877907046       -0.8260730578        1.5519107905
 C         -5.7645120583       -2.2635407152        1.0437939073
 C         -6.2364890061       -2.3877319632       -0.4055055386
 H         -6.5281326042       -3.4286460837       -0.5589440534
 H         -7.1273856668       -1.7757564335       -0.5500071785
 C         -5.1766676237       -2.0134330636       -1.4512383816
 H         -5.1578018494       -2.7711283864       -2.2379057625
 H         -4.1881906194       -2.0138293244       -0.9854952985
 C         -5.4037547797       -0.6621883657       -2.1293146687
 H         -4.5754244304       -0.4828037844       -2.8194235371
 H         -6.3268982193       -0.6954538573       -2.7121399140
 C         -5.4799884420        0.5255048372       -1.1611222796
 H         -5.4213220463        1.4476773847       -1.7443685883
 H         -6.4271693603        0.5115790891       -0.6222885481
 H         -4.8185341255       -2.7964925080        1.1656248375
 H         -6.5032701139       -2.7476839180        1.6867769984
 H         -6.4883085371       -0.2499823927        1.3370559632
 H         -5.4456034818       -0.8587056185        2.6342993482
 O         -3.3284878375       -0.1747015463        1.8298640489
 C         -2.1075528201        0.4029523461        1.5089725401
 O         -1.2375365984        0.2303231876        2.3872430926
 O         -3.0293931614        1.8133972265       -1.6935647233
 C         -0.7052350395        1.7718468802       -0.1213436628
 C          0.2843749573        0.7674904158       -0.6619713401
 C          0.6101914392        0.7484407076       -2.0131887487
 C          1.5226233711       -0.1678768711       -2.5072072285
 C          2.1304681884       -1.0798771619       -1.6638239654
 C          1.8085534116       -1.0700330418       -0.3122645203
 C          0.8982032684       -0.1474930377        0.1821018991
 H          0.6398653212       -0.1569170125        1.2304044236
 N          2.4315367342       -1.9872845840        0.5536941248
 S          4.1014777517       -2.0807049370        0.4640916567
 O          4.4762531422       -2.9593055373       -0.6164415734
 O          4.5398312773       -2.4828744169        1.7821587387
 C          4.6341376565       -0.4169607023        0.0988327234
 C          5.2890004917       -0.1469142826       -1.0852586522
 C          5.6494414557        1.1608090806       -1.3686265701
 C          5.3457049870        2.1708192231       -0.4694899402
 C          4.6910529866        1.8823395011        0.7182226821
 C          4.3290585684        0.5771928794        1.0074571983
 H          3.8205196279        0.3209877646        1.9232960695
 H          4.4569099403        2.6689798938        1.4173217632
 H          5.6202881823        3.1894831457       -0.6934113851
 H          6.1605236590        1.3876308877       -2.2903151819
 H          5.5014055505       -0.9621064293       -1.7575114348
 H          2.1197358024       -1.9090502194        1.5109381557
 H          2.8406436138       -1.8042719195       -2.0287998783
 H          1.7633218208       -0.1722513024       -3.5591824272
 H          0.1307769777        1.4507767064       -2.6793415778
 H         -0.9930082556        2.4330719521       -0.9494934783
 C         -0.0856780178        2.6177480211        0.9742633459
 C          0.9203541062        3.6631585183        0.6004399031
 C         -0.4438354512        4.0691394864        1.0697131395
 H         -0.5453060580        4.5104144883        2.0499615587
 H         -1.1394010943        4.4614689616        0.3422397053
 H          1.7587841817        3.8281351725        1.2589353404
 H          1.1526459995        3.7801940296       -0.4469376593
 H          0.0624332749        2.0830701833        1.9031850326
