  62
        -98.93495030
 C         -2.3409435418        0.6955500785        0.1949433668
 C         -3.5763377760        1.0650901387       -0.3860603120
 C         -4.5347548345       -0.0235663141       -0.6415596454
 C         -4.1813313565       -1.2857500261       -0.3423422474
 C         -5.0214206764       -2.5260452804       -0.4737407790
 C         -5.7520706891       -2.8299509028        0.8455142903
 C         -7.1059320408       -2.1396576769        1.0065463106
 H         -7.8245996696       -2.5963748327        0.3228685746
 H         -7.4513423317       -2.3361900337        2.0241095636
 C         -7.1018009302       -0.6267997345        0.7726173522
 H         -7.9842151048       -0.2102792864        1.2621980246
 H         -6.2269607309       -0.1826742851        1.2508677115
 C         -7.1333404790       -0.2457981901       -0.7148282598
 H         -7.9353033282        0.4751659947       -0.8864469925
 H         -7.3806089023       -1.1287499664       -1.3038984135
 C         -5.8446268007        0.3910846200       -1.2550899261
 H         -5.7903119306        0.2243667853       -2.3362464682
 H         -5.8862461953        1.4751699084       -1.1097551730
 H         -5.0914058738       -2.5426541076        1.6675247897
 H         -5.9116874847       -3.9077466920        0.9168189186
 H         -4.3328509699       -3.3461600009       -0.6878676994
 H         -5.7213792252       -2.4322172839       -1.2986745501
 O         -2.9705214494       -1.6013623277        0.1952388226
 C         -2.0224152909       -0.6325033674        0.4760837557
 O         -0.9665477820       -1.0750432390        0.9683502156
 O         -3.8699016424        2.2567298777       -0.6748865708
 C         -1.3138256844        1.7794944627        0.4738220118
 C         -0.1173497591        1.5463300084       -0.4151657218
 C         -0.2811088824        1.6739548775       -1.7926201775
 C          0.7708633980        1.4302012245       -2.6531396732
 C          2.0106061793        1.0560759637       -2.1624039634
 C          2.1829478448        0.9189243044       -0.7924836913
 C          1.1225858901        1.1697315286        0.0722138638
 H          1.2678446885        1.0501347115        1.1343546752
 N          3.4430840811        0.5694313861       -0.2655610521
 S          4.3155880754       -0.6921540172       -0.9705480277
 O          4.7484549368       -0.2796599090       -2.2820480659
 O          3.5674599094       -1.9293449009       -0.9113279310
 C          5.7150868900       -0.7541170026        0.1306547964
 C          5.7434184543       -1.6899160034        1.1466902491
 C          6.8268786032       -1.7074529033        2.0113110152
 C          7.8551323466       -0.7914592959        1.8481279858
 C          7.8118590839        0.1425036722        0.8235077155
 C          6.7326817503        0.1642579480       -0.0452866534
 H          6.6596982557        0.8648968994       -0.8603414096
 H          8.6142167046        0.8517227589        0.6992814787
 H          8.6966364704       -0.8077946728        2.5226095309
 H          6.8640852712       -2.4339274813        2.8071481715
 H          4.9251480850       -2.3874424534        1.2316802339
 H          3.3880897290        0.4110012559        0.7324915906
 H          2.8347767175        0.8536219857       -2.8260932525
 H          0.6290266481        1.5311701227       -3.7189409862
 H         -1.2510743568        1.9584866062       -2.1775278430
 H         -1.7906989780        2.7190823542        0.1611371744
 C         -0.9885630226        1.8645719030        1.9492495892
 C         -0.3671292766        3.1116645859        2.5014461654
 C         -1.7931809483        2.7802868006        2.8203330693
 H         -2.0372505566        2.4556300334        3.8207670237
 H         -2.5727391867        3.3594500480        2.3476216257
 H          0.3683210042        3.0189574963        3.2860435134
 H         -0.1760517363        3.9188536169        1.8107872572
 H         -0.6910288200        0.9120818049        2.3725685916
