  62
        -98.93355293
 C         -2.4509581756       -1.0072004047        0.2554972110
 C         -3.0939790889       -0.0346455022        1.0588195750
 C         -3.4861681853        1.2243343688        0.4024700519
 C         -3.1690308290        1.4178779285       -0.8911256065
 C         -3.4570328739        2.5731001191       -1.8271058996
 C         -3.9362765600        3.9169551999       -1.2844795940
 C         -2.9005374253        4.6775064778       -0.4571247265
 H         -2.1002397455        5.0098023488       -1.1233271683
 H         -3.3803821238        5.5666504704       -0.0423941569
 C         -2.2523036550        3.8881225722        0.6777000911
 H         -1.5369725919        4.5480425356        1.1764716591
 H         -1.6793804205        3.0544642510        0.2640499731
 C         -3.2147002758        3.3587960001        1.7394992880
 H         -3.8130366480        4.1818302975        2.1347856220
 H         -2.6118082158        2.9590133548        2.5594234105
 C         -4.1639631930        2.2400620174        1.2767543769
 H         -4.5060140587        1.7006258102        2.1648033646
 H         -5.0426007326        2.6460064405        0.7814540519
 H         -4.8560255875        3.7895541687       -0.7212548148
 H         -4.1797942130        4.5333733881       -2.1540291522
 H         -4.2025758694        2.2000078086       -2.5381943336
 H         -2.5357981947        2.7249214965       -2.3993129093
 O         -2.5077878330        0.4687824038       -1.6158749542
 C         -2.1183744233       -0.7473123641       -1.0741168631
 O         -1.5014750083       -1.4774529891       -1.8719134512
 O         -3.3316967081       -0.2090215451        2.2844972590
 C         -2.0140653313       -2.3005410608        0.9219018801
 C         -0.5665545544       -2.5652850834        0.5913102642
 C         -0.1022390667       -3.7248639667       -0.0134581256
 C          1.2386001489       -3.8619966546       -0.3312675696
 C          2.1417027779       -2.8518108867       -0.0573500353
 C          1.6872382483       -1.6903022342        0.5511132959
 C          0.3496907660       -1.5614759075        0.8822379164
 H         -0.0014520793       -0.6459436731        1.3457896810
 N          2.6032370340       -0.6396438280        0.8120604041
 S          3.0632332903        0.2583572721       -0.5483642671
 O          2.1960154003        1.4136745644       -0.6727156386
 O          3.1537302553       -0.6157597861       -1.6882871957
 C          4.6952847349        0.7850198843       -0.0613826152
 C          5.7322915006       -0.1208643363       -0.1713062446
 C          7.0002181278        0.2578121778        0.2389457717
 C          7.2085409033        1.5293191801        0.7526248061
 C          6.1579000819        2.4278600212        0.8564648416
 C          4.8868298205        2.0539291384        0.4483808838
 H          4.0425235130        2.7220774502        0.5038999664
 H          6.3225612142        3.4166177325        1.2535707222
 H          8.1962230295        1.8224211567        1.0718370068
 H          7.8197498478       -0.4378923637        0.1577259680
 H          5.5245321789       -1.0940415358       -0.5842192494
 H          2.2220695127        0.0192631989        1.4795941976
 H          3.1808010193       -2.9378775575       -0.3282701384
 H          1.5814905073       -4.7657649695       -0.8118176002
 H         -0.7949166935       -4.5106933987       -0.2665359709
 H         -2.0813889672       -2.0846571075        2.0019139743
 C         -2.9282557897       -3.4875332923        0.6630269215
 C         -4.3774016200       -3.2869283052        0.3374452077
 C         -3.4428741386       -3.8221132958       -0.7036738488
 H         -3.5261791788       -4.8636322065       -0.9780590090
 H         -3.1510023202       -3.1781997469       -1.5182408319
 H         -5.0997191154       -3.9581123233        0.7771373090
 H         -4.7305571087       -2.2711369092        0.2329869574
 H         -2.6958191984       -4.3251869303        1.3133836016
