  62
        -98.94028746
 C          1.7922851460        0.6992161885        0.8925899355
 C          2.0537089224        0.3073739129       -0.4437065302
 C          3.4565692408        0.4130874764       -0.8776575945
 C          4.3853323866        0.8714858833       -0.0200704390
 C          5.8526250972        0.9778227265       -0.3166514545
 C          6.5948751081       -0.3009471083        0.0962263774
 C          5.9384150665       -1.5860739680       -0.4084271578
 H          6.5639965788       -2.4200740537       -0.0827381916
 H          4.9669623132       -1.7053497444        0.0770679116
 C          5.7536123906       -1.6493437179       -1.9310275622
 H          6.0615109224       -2.6374604918       -2.2795895469
 H          6.4042071595       -0.9189324592       -2.4134218030
 C          4.3145578345       -1.4382775360       -2.4058454866
 H          4.2612130523       -1.7188865947       -3.4611250656
 H          3.6448318023       -2.1049893593       -1.8563920352
 C          3.7739888504       -0.0078332223       -2.2849657276
 H          4.4726813449        0.6907485820       -2.7496359841
 H          2.8274568301        0.0354038256       -2.8314538930
 H          7.6187588154       -0.2421718129       -0.2774418542
 H          6.6333832970       -0.3420143819        1.1873499100
 H          6.2577474270        1.8199399548        0.2470429915
 H          5.9913316325        1.1642490146       -1.3797284815
 O          4.0952779107        1.2450128299        1.2528287845
 C          2.8051554810        1.1424611284        1.7467350122
 O          2.6891592728        1.4673845182        2.9454254035
 O          1.1757056838       -0.1113160477       -1.2404866899
 C          0.4010858200        0.5951824609        1.4932748897
 C         -0.2316167576       -0.7226394571        1.1173509141
 C          0.4618361275       -1.8999876939        1.3900218967
 C         -0.0733386170       -3.1291258112        1.0614171361
 C         -1.3281306271       -3.2152390543        0.4826109005
 C         -2.0347488299       -2.0497127524        0.2212010848
 C         -1.4820472677       -0.8140133625        0.5291062312
 H         -2.0382299625        0.0757332449        0.2889239090
 N         -3.3118196493       -2.0902574297       -0.3609181094
 S         -4.5149740883       -1.1195406852        0.2818415967
 O         -4.3359914572       -0.9262250366        1.7024443857
 O         -5.7529829155       -1.7530543382       -0.1209721833
 C         -4.3662641315        0.4352488529       -0.5718277093
 C         -4.2413486990        0.4296176169       -1.9468299734
 C         -4.1673504205        1.6406102718       -2.6160848802
 C         -4.2251629797        2.8296096554       -1.9047047553
 C         -4.3538357351        2.8182663609       -0.5240853722
 C         -4.4260572990        1.6100350012        0.1513389874
 H         -4.5175850497        1.5539827711        1.2245514125
 H         -4.3958905589        3.7437059030        0.0282570082
 H         -4.1664187959        3.7710029713       -2.4280738370
 H         -4.0635172424        1.6545134811       -3.6890349153
 H         -4.2002578079       -0.5129384101       -2.4664219166
 H         -3.6542064223       -3.0177867809       -0.5660276171
 H         -1.7526248901       -4.1759289528        0.2323416020
 H          0.4843101370       -4.0309709062        1.2663974676
 H          1.4377059822       -1.8348350947        1.8534617184
 H          0.5633881572        0.5828721382        2.5846756076
 C         -0.4937730565        1.7915786079        1.2031801122
 C          0.0852728862        3.1428684413        0.9116150118
 C         -0.6143177367        2.3787474188       -0.1699872049
 H         -1.5851318836        2.7218832892       -0.4965586011
 H         -0.0222134285        1.9318461857       -0.9523021205
 H         -0.4038510156        4.0084089413        1.3324632076
 H          1.1614288322        3.2288010835        0.8682849526
 H         -1.3946450045        1.7777845531        1.8102026395
