  62
        -98.93648155
 C          2.3413454788        1.2901603068       -0.0768184557
 C          3.1283193293        0.5677063971        0.8496595445
 C          3.9921512254       -0.4779729026        0.2855587174
 C          3.9939444793       -0.6934498643       -1.0426061890
 C          4.8515475457       -1.6776394884       -1.7938627046
 C          4.5970741241       -3.1693390454       -1.5029993150
 C          5.5056894338       -3.7674997886       -0.4217848217
 H          5.8012253650       -4.7728281987       -0.7285148684
 H          6.4201899054       -3.1759534894       -0.3650303814
 C          4.8896605852       -3.8910199985        0.9751834476
 H          4.2215908856       -4.7552046697        0.9961717364
 H          5.6988749839       -4.0846029819        1.6825507377
 C          4.0886490612       -2.6823955386        1.4597547170
 H          3.8759021340       -2.8172855981        2.5223764763
 H          3.1201216064       -2.6575726165        0.9536170547
 C          4.7812708185       -1.3226532682        1.2433043505
 H          4.8217884571       -0.7718380864        2.1852691000
 H          5.7991777069       -1.4626558461        0.8827545022
 H          3.5485942462       -3.3165037891       -1.2447863169
 H          4.7782403426       -3.7074949648       -2.4347067520
 H          4.6562699566       -1.4831027529       -2.8503539235
 H          5.9012112582       -1.4455139925       -1.6001413297
 O          3.2116897741        0.0184984511       -1.8992387142
 C          2.3586263186        1.0132227373       -1.4439713114
 O          1.6882947314        1.5632206503       -2.3367267324
 O          3.1112606072        0.7867968952        2.0920862052
 C          1.4230982796        2.3856551511        0.4312767301
 C         -0.0153219155        2.0686041844        0.1011422935
 C         -0.9100691291        3.0104980983       -0.3890627698
 C         -2.2222437711        2.6591184447       -0.6562696266
 C         -2.6714278853        1.3698463587       -0.4403934243
 C         -1.7894600708        0.4224936799        0.0634412062
 C         -0.4781035195        0.7792205796        0.3355001593
 H          0.2067176182        0.0388925464        0.7326591853
 N         -2.2353602360       -0.8946268100        0.2798137402
 S         -3.6053258612       -1.1084583889        1.2302341663
 O         -3.7469668911       -0.0447684443        2.1975324235
 O         -3.4907084698       -2.4493881365        1.7612676414
 C         -4.9502550529       -1.0591379343        0.0652804374
 C         -5.9729560862       -0.1459491763        0.2315518606
 C         -7.0141260822       -0.1327071176       -0.6836865842
 C         -7.0140119833       -1.0280644881       -1.7422826463
 C         -5.9804808580       -1.9407780833       -1.8932826239
 C         -4.9374298100       -1.9602372650       -0.9813179418
 H         -4.1178188822       -2.6549571371       -1.0601039094
 H         -5.9837618981       -2.6356347168       -2.7176105832
 H         -7.8241378491       -1.0151258846       -2.4541710729
 H         -7.8186333175        0.5756345320       -0.5680298093
 H         -5.9270631166        0.5347179248        1.0666308127
 H         -1.5032248492       -1.5223907169        0.5792788619
 H         -3.6896710095        1.0907264731       -0.6563135610
 H         -2.9040741089        3.4007549763       -1.0433623593
 H         -0.5793588030        4.0204946350       -0.5663795436
 H          1.5286432567        2.3703809466        1.5270423100
 C          1.8796802049        3.7355801267       -0.0813300151
 C          1.6435919209        4.9734918991        0.7298380783
 C          3.0278671681        4.4150255010        0.6007549456
 H          3.7467500380        4.9460425969       -0.0048536522
 H          3.4616369438        3.9156969885        1.4550484554
 H          1.4140281315        5.8928894370        0.2126899857
 H          1.1391629924        4.8617176753        1.6778104825
 H          1.8243903024        3.8092122051       -1.1615872483
