  62
        -98.94303103
 C          2.6612957620        1.1831418205        0.2553657113
 C          2.7741370771        0.3331759936       -0.8716121540
 C          3.7704800385       -0.7416471711       -0.7651466278
 C          4.5223103557       -0.8607686194        0.3432295370
 C          5.5843910286       -1.8969840528        0.5909022695
 C          5.0394934518       -3.2333040654        1.1137189249
 C          4.2946107551       -4.0811240497        0.0817631881
 H          4.9156811859       -4.1985998758       -0.8068329004
 H          4.1607885277       -5.0725576179        0.5189350466
 C          2.9189610818       -3.5296852461       -0.3184190628
 H          2.1868599090       -4.3403356422       -0.3154235605
 H          2.5886450568       -2.7983523456        0.4230894005
 C          2.8734901199       -2.8845344634       -1.7036352983
 H          1.8640204322       -2.4990432171       -1.8685728528
 H          3.0737647712       -3.6397836663       -2.4670143132
 C          3.8605289923       -1.7252712444       -1.8931911400
 H          4.8768108630       -2.1076679745       -1.9840820930
 H          3.6003426177       -1.2000254967       -2.8155103747
 H          5.8911271208       -3.8111217693        1.4800047869
 H          4.3828468213       -3.0338023203        1.9636967438
 H          6.1530732182       -2.0666131751       -0.3237699950
 H          6.2549832676       -1.4798020824        1.3451835515
 O          4.4054363303       -0.0080850479        1.3946205969
 C          3.4705932120        1.0110586514        1.3844972364
 O          3.4605084302        1.7000153941        2.4240936935
 H          0.0593069633        0.7764318589       -1.1814916665
 C         -0.4137302921        1.0512489315       -0.2502897537
 C          0.2803275079        1.8404993799        0.6556092721
 C         -0.3372755985        2.1741936673        1.8554197506
 C         -1.6153835693        1.7252843819        2.1381232583
 C         -2.3007842519        0.9320270640        1.2354029910
 C         -1.6923631282        0.5920638275        0.0341829022
 N         -2.3633186832       -0.2370128446       -0.8794692609
 S         -3.9617798159        0.0954100145       -1.2593377805
 O         -4.1741722521       -0.4979545341       -2.5613702271
 O         -4.2552458721        1.5049495385       -1.1406523201
 C         -4.8883932031       -0.8247771347       -0.0483396206
 C         -4.6232926820       -2.1734606212        0.0869984750
 C         -5.3452565309       -2.9076692709        1.0141924870
 C         -6.3170261347       -2.2854509926        1.7838636362
 C         -6.5735296270       -0.9312924066        1.6339510878
 C         -5.8540378306       -0.1909128045        0.7086843038
 H         -6.0158155432        0.8650888401        0.5614198042
 H         -7.3294667826       -0.4494438775        2.2329540017
 H         -6.8774747650       -2.8596760684        2.5046346723
 H         -5.1480963660       -3.9609048975        1.1335955396
 H         -3.8624356968       -2.6197476644       -0.5314879445
 H         -1.8249754494       -0.4396913868       -1.7094593388
 H         -3.2958510803        0.5784936951        1.4511056270
 H         -2.0825321578        1.9930010941        3.0736078708
 H          0.1973402724        2.7811131676        2.5718324219
 C          1.6722432948        2.3362266829        0.3403006630
 H          2.0072568873        2.9482549984        1.1882421361
 C          1.6699502994        3.2063254570       -0.9022804363
 C          1.1491325681        4.6072733686       -0.8049250550
 C          2.6165589369        4.3635633033       -0.9888216256
 H          3.0640792738        4.5924918269       -1.9443630193
 H          3.2717520032        4.5371863010       -0.1473807556
 H          0.8093512892        4.9482505599        0.1613968533
 H          0.5841898797        5.0054182809       -1.6339518027
 H          1.4733250006        2.6585121133       -1.8142859166
 O          2.0929291268        0.4407622228       -1.9273850559
