  62
        -98.93156640
 C         -2.2290807401       -0.8368555398        0.1140891403
 C         -3.5464399401       -1.2708528899        0.4035014302
 C         -4.6461299101       -0.5470662001       -0.2578075400
 C         -4.3498296601        0.4813449399       -1.0707353100
 C         -5.3089623201        1.3785435397       -1.8035386702
 C         -5.6174017703        2.6384516798       -0.9767649004
 C         -6.7724977504        2.4932809297        0.0133671495
 H         -7.7131572403        2.4398902896       -0.5386348106
 H         -6.7981743805        3.4029734298        0.6176436694
 C         -6.6844829004        1.2840505399        0.9479470297
 H         -7.3181296405        1.4830225399        1.8143837796
 H         -5.6616906804        1.1765435300        1.3137818498
 C         -7.1425281902       -0.0242564003        0.2864428998
 H         -7.6441313601        0.2073199596       -0.6528659203
 H         -7.8850909202       -0.5108697203        0.9221899398
 C         -6.0313978100       -1.0542890402        0.0383494100
 H         -6.3387189799       -1.7225032203       -0.7732044500
 H         -5.9106152801       -1.6807822001        0.9278120001
 H         -5.8585974703        3.4549829297       -1.6604271805
 H         -4.7056479804        2.9186878999       -0.4427244703
 H         -4.8066048701        1.6819417996       -2.7245136802
 H         -6.2181999601        0.8432582696       -2.0604640302
 O         -3.0706681001        0.8898893600       -1.2955835500
 C         -1.9815451101        0.2604110201       -0.7111490498
 O         -0.8863592801        0.7765344602       -1.0043396998
 H          1.5828191500       -1.1975895794        0.1394758107
 C          1.2324619498       -0.5427483494        0.9179941206
 C         -0.0842803502       -0.5993129494        1.3462229204
 C         -0.5040325804        0.2823156106        2.3391573703
 C          0.3678063695        1.2104644108        2.8726547803
 C          1.6768708895        1.2758499608        2.4294930804
 C          2.1107694197        0.3923849808        1.4482017005
 N          3.4563033797        0.4121123509        1.0337317406
 S          3.8973114099        0.1671662407       -0.5760880993
 O          3.3871569399        1.2299575306       -1.4143943394
 O          3.5712302101       -1.1805918793       -0.9647302992
 C          5.6673033499        0.3245006609       -0.4092429191
 C          6.3796664499       -0.7541337889        0.0795620110
 C          7.7512250299       -0.6361291288        0.2374229211
 C          8.3849090198        0.5527313412       -0.0929008489
 C          7.6575293697        1.6263261711       -0.5837649991
 C          6.2850553698        1.5144585110       -0.7434154192
 H          5.6804416397        2.3189755309       -1.1306486494
 H          8.1530482997        2.5481153711       -0.8429291792
 H          9.4527559398        0.6420524814        0.0297997411
 H          8.3204981299       -1.4697950087        0.6158976513
 H          5.8452959300       -1.6595871890        0.3149567411
 H          3.9438722096        1.2261054610        1.3857192206
 H          2.3569847494        2.0073835310        2.8396333404
 H          0.0259750093        1.8946205408        3.6350277802
 H         -1.5313237804        0.2381468806        2.6759731702
 C         -1.0839484101       -1.5766944496        0.7811219805
 H         -1.5557598201       -2.1061283296        1.6264773705
 C         -0.4443175899       -2.6433182296       -0.0946374194
 C         -1.2221961397       -3.3469782198       -1.1648686294
 C         -0.1188298198       -2.4048088198       -1.5374731194
 H          0.8048627503       -2.8084750697       -1.9269983992
 H         -0.3753152398       -1.4433632698       -1.9554473295
 H         -2.2412228397       -3.0309549599       -1.3348660395
 H         -1.0636880296       -4.4061099798       -1.3010411792
 H          0.2608783101       -3.2531095095        0.4626318608
 O         -3.7952808000       -2.2206816898        1.1935615003
