  62
        -98.94289611
 C         -2.5040741386       -0.8737047798        0.4452801205
 C         -2.5659337388        0.3462200494       -0.2699538408
 C         -3.7247852091        1.2009300595        0.0262625582
 C         -4.6273218790        0.7964248102        0.9387310486
 C         -5.8783780992        1.5438700803        1.2972433277
 C         -7.0599604791        1.1028626691        0.4220612581
 C         -6.7473673989        1.0850324976       -1.0741914119
 H         -6.0004856187        0.3130273176       -1.2730224210
 H         -7.6612748988        0.7890615468       -1.5938370017
 C         -6.2512955992        2.4252878071       -1.6346588633
 H         -6.5058270195        3.2317874478       -0.9461142441
 H         -6.7704544592        2.6256631260       -2.5742904335
 C         -4.7520046792        2.4704681872       -1.9353804232
 H         -4.4755328589        1.6099869266       -2.5498140923
 H         -4.5499083394        3.3701354266       -2.5227086841
 C         -3.8270705193        2.5058084887       -0.7122407931
 H         -2.8158199393        2.7274652985       -1.0658991933
 H         -4.1386201896        3.3066731393       -0.0386229940
 H         -7.8994299292        1.7740231691        0.6123783573
 H         -7.3557502488        0.0949032393        0.7220778691
 H         -6.1149094893        1.3369187713        2.3423242779
 H         -5.7036840295        2.6114693402        1.1789771366
 O         -4.5251730088       -0.3769835991        1.6146933098
 C         -3.4671627286       -1.2406354491        1.3844780308
 O         -3.4918497484       -2.2824478183        2.0711946119
 H          0.9394529018       -1.6934405508       -1.3363352984
 C          1.0293013516       -1.1619541398       -0.4016617989
 C         -0.0375105385       -1.1281640892        0.4814085409
 C          0.1192092812       -0.4441732179        1.6843844302
 C          1.3016030810        0.2051332327        1.9802947397
 C          2.3578852111        0.1858624820        1.0857098298
 C          2.2197231414       -0.5068288592       -0.1080381095
 N          3.2851408714       -0.5305792499       -1.0215861494
 S          4.8293880415       -0.8752257590       -0.4675446589
 O          5.5285854117       -1.4134041300       -1.6140711183
 O          4.7941766716       -1.7078203278        0.7121968019
 C          5.5131269911        0.7203378416       -0.0713836505
 C          6.0146131209        0.9604234630        1.1927162193
 C          6.5541388406        2.2059313434        1.4744515380
 C          6.5835120504        3.1834912224        0.4918353970
 C          6.0781190006        2.9255613410       -0.7738058528
 C          5.5382430509        1.6824469206       -1.0618991515
 H          5.1397332511        1.4416669395       -2.0333137113
 H          6.1029340305        3.6883362402       -1.5353644636
 H          7.0032179102        4.1520896128        0.7133766660
 H          6.9483455905        2.4082288946        2.4573972678
 H          5.9675416510        0.1715300338        1.9266849501
 H          3.0831127116       -1.0245045309       -1.8784031289
 H          3.2810641910        0.6956331225        1.3075620793
 H          1.4025152008        0.7360635537        2.9148891891
 H         -0.7059701189       -0.4262468874        2.3839330502
 C         -1.3473389083       -1.8274861598        0.2083728516
 H         -1.4603164982       -2.6338262790        0.9480604624
 C         -1.4445877381       -2.4252643112       -1.1799659778
 C         -0.8677758177       -3.7794564614       -1.4617873364
 C         -2.3537611778       -3.5949771817       -1.4011643167
 H         -2.9180729077       -3.6440660128       -2.3203839667
 H         -2.8846097078       -3.9789781309       -0.5420868863
 H         -0.3872709777       -4.2982992204       -0.6458078658
 H         -0.4144721776       -3.9592947623       -2.4253770761
 H         -1.3978237582       -1.6743274020       -1.9606870586
 O         -1.7004466588        0.7039350288       -1.1106156611
