  62
        -98.94487456
 C         -2.6447077321       -0.2968732953       -0.0052451280
 C         -2.4589803981       -1.4128206534       -0.8542450219
 C         -1.7947877688       -2.5723329874       -0.2516425198
 C         -1.4104868345       -2.5244551819        1.0371708227
 C         -0.6759953461       -3.6069582815        1.7797403344
 C          0.8420713208       -3.5670680025        1.5505694457
 C          1.3054593574       -4.0863579325        0.1880464762
 H          0.8461601824       -5.0560944873       -0.0084883518
 H          2.3839284632       -4.2433264415        0.2562677543
 C          1.0193507202       -3.1291692294       -0.9777857529
 H          1.9033550556       -3.0606269405       -1.6175067660
 H          0.8307234310       -2.1289544296       -0.5784425217
 C         -0.1471328699       -3.5472886307       -1.8738946694
 H          0.1027229269       -4.4790141303       -2.3868456168
 H         -0.2913902474       -2.7736315278       -2.6327997740
 C         -1.4792789294       -3.7399634021       -1.1383412815
 H         -1.4590697768       -4.6615758543       -0.5575589648
 H         -2.2738570355       -3.8127972028       -1.8853907161
 H          1.3076216313       -4.1764871464        2.3288809239
 H          1.1824121860       -2.5359305933        1.6803748249
 H         -1.0678109649       -4.5853503179        1.4993856843
 H         -0.8698549470       -3.4432880763        2.8418784984
 O         -1.6584791514       -1.4543925688        1.8368972190
 C         -2.2265990791       -0.2988675587        1.3267968192
 O         -2.3261724222        0.6324467700        2.1496100685
 O         -2.8106366757       -1.4286971698       -2.0661632557
 C         -3.1628164965        1.0022675838       -0.6006537813
 C         -2.0536585083        2.0205195885       -0.4859663169
 C         -2.2104337993        3.2968303555        0.0365862129
 C         -1.1118729385        4.1207640527        0.2217437747
 C          0.1634345883        3.6889080468       -0.0954958501
 C          0.3228168272        2.4278363136       -0.6500770785
 C         -0.7776933875        1.6184614420       -0.8622981446
 H         -0.6358622867        0.6277887539       -1.2784143374
 N          1.6364222767        1.9340544824       -0.9089253799
 S          2.1880241507        1.1288504075        0.4829457649
 O          1.4335352828       -0.0883182847        0.6909836436
 O          2.1950295388        2.0794503827        1.5652546185
 C          3.8627047014        0.7337934886        0.0143749641
 C          4.2018733191       -0.5689241654       -0.2940244840
 C          5.5026760126       -0.8475944669       -0.6846184026
 C          6.4338862225        0.1765155782       -0.7631646325
 C          6.0769304282        1.4803366612       -0.4513426256
 C          4.7791509757        1.7652326117       -0.0589281266
 H          4.4559979782        2.7596018639        0.1999511873
 H          6.8043972267        2.2734999122       -0.5128963023
 H          7.4449905755       -0.0431934730       -1.0676009385
 H          5.7826005862       -1.8604794422       -0.9256349845
 H          3.4450992347       -1.3332011019       -0.2141378980
 H          1.6130819041        1.2410162935       -1.6487048050
 H          1.0312183848        4.2980868511        0.0961852687
 H         -1.2503660212        5.1038444065        0.6455501334
 H         -3.1910367373        3.6380977545        0.3264577058
 H         -3.3410713106        0.7895802856       -1.6653296206
 C         -4.4623467081        1.4366120539        0.0387740949
 C         -5.4278158202        2.2909512257       -0.7261746986
 C         -5.7478178635        0.8514276616       -0.4616064731
 H         -6.5189941398        0.6152784013        0.2559388760
 H         -5.6871325921        0.1526824101       -1.2831184394
 H         -5.9842654263        3.0450916935       -0.1906536592
 H         -5.1567448664        2.5724997693       -1.7323857895
 H         -4.3657903289        1.5969037222        1.1066076145
