  62
        -98.94212546
 C         -2.3501698993       -1.1028377690       -0.4548758099
 C         -1.6187658189        0.0354307304       -0.8721554906
 C         -2.3356083283        1.3142817308       -0.8066842016
 C         -3.6225264084        1.3428158016       -0.4164586918
 C         -4.4921782979        2.5666112720       -0.3219010027
 C         -4.3382515777        3.3380678429        0.9960848567
 C         -3.0264506774        4.1092582825        1.1497380663
 H         -2.8714599770        4.7401279618        0.2740178158
 H         -3.1425020872        4.7702491031        2.0108682458
 C         -1.7923993777        3.2230203721        1.3730858070
 H         -2.1093955982        2.2233500625        1.6807062577
 H         -1.1922937476        3.6274794225        2.1915143368
 C         -0.8702462277        3.0967377509        0.1600433272
 H         -0.0551661280        2.4171363707        0.4265635677
 H         -0.4314089973        4.0707176205       -0.0682096335
 C         -1.5608670078        2.5626871602       -1.1022150125
 H         -2.2127633375        3.3269898502       -1.5243200331
 H         -0.7905542679        2.3128746294       -1.8353573122
 H         -5.1632682274        4.0517318133        1.0545433561
 H         -4.4464255980        2.6364917535        1.8266070972
 H         -4.2831214975        3.2312411013       -1.1604020332
 H         -5.5253482180        2.2213887123       -0.3994329926
 O         -4.3051836588        0.2193982021       -0.0682560410
 C         -3.6774281793       -1.0146778681       -0.0303153900
 O         -4.3986640797       -1.9456117075        0.3806693606
 H          1.0375968903       -2.1517893306       -0.7378392288
 C          0.7462450502       -2.1053681197        0.2993991911
 C         -0.5760039399       -2.3121013689        0.6587055412
 C         -0.9215586000       -2.2393234278        2.0056440211
 C          0.0286736600       -1.9520757974        2.9673278410
 C          1.3411589902       -1.7103919582        2.6010113209
 C          1.6935264102       -1.7791092594        1.2608982410
 N          3.0245111404       -1.4885987702        0.9019272109
 S          3.5517987810        0.0913039998        1.1847661997
 O          4.8279234509        0.0062374498        1.8601680699
 O          2.5230373412        0.8211226408        1.8838881691
 C          3.8087926214        0.7757353885       -0.4447249007
 C          5.0910423116        1.1032346077       -0.8425341709
 C          5.2872897219        1.6343170867       -2.1071694713
 C          4.2026497020        1.8269348565       -2.9493999815
 C          2.9229101219        1.4897762174       -2.5353901413
 C          2.7168423516        0.9573860284       -1.2717399010
 H          1.7268043714        0.6827342390       -0.9388088208
 H          2.0758352020        1.6314426672       -3.1877775115
 H          4.3536231323        2.2408960058       -3.9339838718
 H          6.2819379920        1.8953821061       -2.4307885414
 H          5.9014986515        0.9355849479       -0.1519318307
 H          3.2453624804       -1.7618602009       -0.0456786989
 H          2.0916816802       -1.4466590980        3.3295101707
 H         -0.2563833500       -1.8996703366        4.0076231809
 H         -1.9561399201       -2.3879103271        2.2857715011
 C         -1.6759349799       -2.4634705192       -0.3635424088
 H         -2.4307039902       -3.1560935486        0.0308221616
 C         -1.2144429800       -2.9564575904       -1.7176888584
 C         -0.8594245006       -4.4016700506       -1.8929942373
 C         -2.1116748103       -3.8569780706       -2.5099970578
 H         -2.1478810002       -3.7333263614       -3.5819439679
 H         -3.0606616604       -4.1279527699       -2.0707476377
 H         -0.9573163809       -5.0456919600       -1.0321786969
 H         -0.0363879706       -4.6574321314       -2.5426057571
 H         -0.6442915096       -2.2202020910       -2.2702593189
 O         -0.4310425788       -0.0022025804       -1.2851413305
