  62
        -98.93312812
 C          2.4413938767        1.0167674656        0.2395344595
 C          3.1000876875        0.0444483306        1.0290485945
 C          3.4798437907       -1.2206543299        0.3707373242
 C          3.1475199015       -1.3987127221       -0.9211660694
 C          3.3758668466       -2.6106881033       -1.7845424243
 C          2.3893827927       -3.7472380921       -1.4725613316
 C          2.1790363842       -4.0249671429        0.0136306343
 H          1.8080183355       -3.1182481099        0.4959096415
 H          1.3914179957       -4.7783145310        0.0999956245
 C          3.4061786323       -4.5399361156        0.7627375714
 H          3.7497815339       -5.4634083795        0.2916963741
 H          3.0850122936       -4.7846180083        1.7783824931
 C          4.5890388716       -3.5735711068        0.8596715563
 H          5.1519307574       -3.5469775587       -0.0694125624
 H          5.2673497974       -3.9666644610        1.6224406552
 C          4.2226786497       -2.1576644667        1.2929751744
 H          3.6309088856       -2.2057419219        2.2142143948
 H          5.1427784053       -1.6291414564        1.5704546749
 H          2.7387406757       -4.6536933415       -1.9700231830
 H          1.4189628032       -3.4786601906       -1.8988703943
 H          4.4027285280       -2.9510625422       -1.6901754314
 H          3.2222186666       -2.2925021585       -2.8181113542
 O          2.4755835795       -0.4505181653       -1.6343478619
 C          2.0925849557        0.7621026173       -1.0877077456
 O          1.4683205579        1.4975919337       -1.8753884732
 O          3.3527875191        0.2154415588        2.2529451686
 C          2.0115757821        2.3064829912        0.9173459301
 C          0.5583881220        2.5678606711        0.6093185198
 C          0.0798408146        3.7328579534        0.0264591580
 C         -1.2659328231        3.8670280117       -0.2713438611
 C         -2.1600954687        2.8484983393        0.0010112689
 C         -1.6915127849        1.6816893288        0.5882658456
 C         -0.3489798854        1.5558691160        0.8997450456
 H          0.0129572680        0.6363825506        1.3468771543
 N         -2.5982627493        0.6227912497        0.8480406303
 S         -3.0698848727       -0.2622077951       -0.5172469687
 O         -2.2007445581       -1.4135602416       -0.6615430181
 O         -3.1749639685        0.6234566951       -1.6468714394
 C         -4.6947467071       -0.8001127419       -0.0185653208
 C         -5.7439000788        0.0903848248       -0.1377860965
 C         -7.0053427683       -0.2989090199        0.2825468868
 C         -7.1951632585       -1.5652363127        0.8157204846
 C         -6.1324405591       -2.4483285049        0.9288229544
 C         -4.8679676966       -2.0638386750        0.5104310966
 H         -4.0150888845       -2.7204714364        0.5716739353
 H         -6.2826843493       -3.4332330515        1.3408942758
 H         -8.1778139059       -1.8665601532        1.1426788983
 H         -7.8343270893        0.3845827971        0.1938706361
 H         -5.5504143226        1.0599435797       -0.5659023944
 H         -2.2050265989       -0.0415232852        1.5030919507
 H         -3.2032054354        2.9324762772       -0.2547371026
 H         -1.6199046370        4.7753496533       -0.7349483852
 H          0.7647801291        4.5258933869       -0.2251420321
 H          2.0959709762        2.0860751932        1.9953475567
 C          2.9179781369        3.4976257351        0.6501112886
 C          4.3598284056        3.3039953675        0.2897558690
 C          3.4007823230        3.8474764559       -0.7243880610
 H          3.4756020115        4.8919531432       -0.9898411714
 H          3.0919246899        3.2110974669       -1.5385764774
 H          5.0903954734        3.9723732292        0.7200454224
 H          4.7128946562        2.2902684282        0.1665403249
 H          2.6988059968        4.3281937511        1.3140533591
