  62
        -98.94349479
 C         -1.8501875123       -0.2921299956       -0.2532305187
 C         -2.9793936936       -0.5462855916       -1.0667920783
 C         -4.2739904218       -0.5871770733       -0.3741550404
 C         -4.3118936238       -0.4053358859        0.9588579357
 C         -5.5660365605       -0.3732580987        1.7826158772
 C         -6.1132893984        1.0555792242        1.9072962663
 C         -6.2194963750        1.7950873261        0.5736336172
 H         -6.6445951252        2.7795519152        0.7806470263
 H         -5.2156078590        1.9559108536        0.1741617506
 C         -7.0751865343        1.0808075265       -0.4818237564
 H         -7.7115094728        0.3364885641       -0.0016927116
 H         -7.7332232227        1.8134038927       -0.9539625332
 C         -6.2742090369        0.4148600099       -1.6021904724
 H         -5.5680978634        1.1338458350       -2.0252580834
 H         -6.9700863677        0.1337037899       -2.3972166031
 C         -5.4975066400       -0.8475275145       -1.2072632599
 H         -6.1662401541       -1.5482984543       -0.7030989469
 H         -5.1381591476       -1.3176051563       -2.1275790873
 H         -7.0967062662        1.0082966552        2.3785634145
 H         -5.4492669726        1.6243294476        2.5621422229
 H         -6.3118768831       -1.0203175936        1.3249598229
 H         -5.3322611004       -0.7515955148        2.7791487403
 O         -3.2032556906       -0.1818032557        1.7095710087
 C         -1.9460187167       -0.1125055513        1.1269147593
 O         -1.0185400589        0.1059299687        1.9279031141
 H          2.1855552858       -0.0085630573       -0.2323689911
 C          1.7786890976       -0.9863027371       -0.0351473719
 C          0.4473261587       -1.2586283211       -0.3094690675
 C         -0.0352146560       -2.5402457554       -0.0558490267
 C          0.7858577810       -3.5124266961        0.4799314144
 C          2.1137651625       -3.2355913450        0.7538354700
 C          2.6114939686       -1.9667975299        0.4879764022
 N          3.9508627705       -1.6520695540        0.7590297585
 S          4.8236123040       -0.7108554112       -0.3129212332
 O          4.3972419123       -0.9191289697       -1.6768569966
 O          6.2081787555       -1.0241225575       -0.0276304965
 C          4.5080208500        0.9694400964        0.1826518192
 C          4.4287292435        1.9472748149       -0.7889871881
 C          4.2362185089        3.2645057798       -0.4019919332
 C          4.1269227335        3.5788919159        0.9436300632
 C          4.2102330903        2.5849494223        1.9070304434
 C          4.4074919619        1.2670220500        1.5271774115
 H          4.4740016480        0.4710410044        2.2498579471
 H          4.1213138232        2.8326784999        2.9525618401
 H          3.9744038828        4.6038722143        1.2430121551
 H          4.1713055421        4.0385353722       -1.1503920460
 H          4.5074682077        1.6567170974       -1.8245833480
 H          4.5033130536       -2.4153957300        1.1214505829
 H          2.7583975558       -3.9949467267        1.1699522897
 H          0.3921745905       -4.4978298155        0.6796412499
 H         -1.0697694226       -2.7631504779       -0.2791574197
 C         -0.4795738836       -0.2244095999       -0.8993010448
 H         -0.6411002195       -0.4820971053       -1.9575089553
 C          0.0631637707        1.1876956910       -0.8210671844
 C          0.9683111207        1.7165983085       -1.8918096288
 C         -0.4433154333        2.2091858249       -1.7933787657
 H         -0.6157663700        3.2153751929       -1.4423974888
 H         -1.1559522905        1.8761316717       -2.5339641181
 H          1.2236301147        1.0532160151       -2.7047473415
 H          1.7646607767        2.3860630365       -1.6038026171
 H          0.2357041400        1.5087696791        0.2003342931
 O         -2.9067705354       -0.7365321363       -2.3114941947
