  62
        -98.93136175
 C          2.2460576193        1.0334649295       -0.4232350991
 C          3.6159491659        1.1293940442       -0.0647327731
 C          4.4676579594       -0.0059410523       -0.4309399650
 C          3.9323116447       -1.0552717833       -1.0799807882
 C          4.6718103357       -2.2804969023       -1.5455244217
 C          4.8483165758       -3.3533892479       -0.4622447002
 C          5.8655263230       -3.0157122293        0.6285417356
 H          6.0489490319       -3.9338236567        1.1901372382
 H          6.8083570818       -2.7229397124        0.1656720555
 C          5.4074601929       -1.9231961397        1.6048116107
 H          4.3252093605       -1.7945995576        1.5258559762
 H          5.6175676225       -2.2387970814        2.6292260965
 C          6.0830356123       -0.5671194653        1.4008561805
 H          5.6576193201        0.1387468004        2.1185577464
 H          7.1518391685       -0.6554266540        1.6074721237
 C          5.9046461726        0.0219996142       -0.0044823368
 H          6.5233164657       -0.5182933444       -0.7205651008
 H          6.2238619227        1.0666780548        0.0182715072
 H          3.8752429960       -3.5510714898       -0.0062321350
 H          5.1730781929       -4.2691893216       -0.9616214787
 H          5.6479259888       -1.9919785456       -1.9366739633
 H          4.0819883435       -2.7071588134       -2.3596986350
 O          2.6171099084       -1.1097251916       -1.4156845642
 C          1.7353997581       -0.0827142978       -1.0883468350
 O          0.5666175760       -0.3008728280       -1.4518728955
 O          4.1069065231        2.1253180785        0.5321314923
 C          1.3498116216        2.2025947963       -0.0328008946
 C          0.2698937712        1.7379399116        0.9120507501
 C          0.5763119924        1.7456789725        2.2733987701
 C         -0.3304970038        1.3002558355        3.2147595427
 C         -1.5736045980        0.8384422778        2.8217689167
 C         -1.8956393294        0.8259981201        1.4702391863
 C         -0.9775480516        1.2686528337        0.5259406868
 H         -1.2491618955        1.1961701736       -0.5103743218
 N         -3.1765757606        0.4099815159        1.0586293547
 S         -3.3638348431       -0.5505960367       -0.3196196338
 O         -2.6049120241       -1.7738324370       -0.1804391758
 O         -3.1321540546        0.2484777218       -1.4936232275
 C         -5.1081099795       -0.9051402743       -0.1829890763
 C         -5.5204096764       -2.0974392832        0.3809031235
 C         -6.8780929035       -2.3465642369        0.5078052677
 C         -7.7962048850       -1.4024323471        0.0736957265
 C         -7.3678045318       -0.2105501994       -0.4917410346
 C         -6.0117902273        0.0435129022       -0.6222688529
 H         -5.6312021197        0.9501683355       -1.0627569429
 H         -8.0843361325        0.5198875072       -0.8312716794
 H         -8.8521313358       -1.5981411012        0.1736426313
 H         -7.2135311285       -3.2740733360        0.9431990912
 H         -4.7703175010       -2.8057203989        0.6947705720
 H         -3.6961233502       -0.0052393856        1.8217701115
 H         -2.2881361000        0.4912187505        3.5529914224
 H         -0.0683581619        1.3111822321        4.2619542244
 H          1.5495874480        2.0984142562        2.5858121019
 H          2.0187512918        2.8435321587        0.5643334179
 C          0.9728272223        3.0583626044       -1.2356103735
 C          0.0089824493        2.7029011302       -2.3264304116
 C         -0.3231342256        3.8010268466       -1.3614781176
 H         -0.2967076145        4.8203323101       -1.7171650449
 H         -1.0870662919        3.6093759103       -0.6240511455
 H          0.2859455943        2.9772902534       -3.3353331393
 H         -0.5228253236        1.7666124522       -2.2792589764
 H          1.8547658721        3.5949241723       -1.5796643612
