  62
        -98.94378066
 C         -1.8845737217       -1.2259218790       -0.3372839455
 C         -1.8560678597        0.0265273036        0.3223410397
 C         -3.1285239803        0.4653108490        0.9137555661
 C         -4.2109399319       -0.3278896953        0.8161700344
 C         -5.5792899151        0.0242139225        1.3219512030
 C         -6.4074146225        0.7297572701        0.2386509492
 C         -5.6742392629        1.8812683759       -0.4495246379
 H         -4.8309047558        1.4787479792       -1.0151584646
 H         -6.3656740507        2.3199367359       -1.1722576853
 C         -5.1698577729        2.9739455373        0.5035988717
 H         -5.4108557355        3.9496368504        0.0763376545
 H         -5.6913058190        2.9018836362        1.4587940902
 C         -3.6598413877        2.9543506149        0.7479853635
 H         -3.3846599892        3.8853424939        1.2507284947
 H         -3.1354907004        2.9311747251       -0.2104651324
 C         -3.1414037183        1.7967608093        1.6105679819
 H         -2.0994375782        2.0106642673        1.8668588247
 H         -3.7163504420        1.7424947252        2.5372685766
 H         -6.6797379253       -0.0055987364       -0.5220917328
 H         -7.3265845439        1.1018210887        0.6949819861
 H         -6.0870547383       -0.8972652919        1.6122235685
 H         -5.4843805660        0.6650215284        2.1965479778
 O         -4.1921988179       -1.5357148349        0.1957230998
 C         -3.0353274778       -2.0104654238       -0.4018928631
 O         -3.1552995650       -3.1283917127       -0.9438770020
 H          2.0360131434       -1.2357666951       -1.4150832619
 C          1.8197422560       -1.5377199092       -0.4016447312
 C          0.5165450933       -1.8360490086       -0.0304116470
 C          0.2800643047       -2.2387408117        1.2807931580
 C          1.3092390306       -2.3063103667        2.2006825281
 C          2.6049285110       -1.9901770061        1.8307937200
 C          2.8569491904       -1.6116009347        0.5204592381
 N          4.1826294956       -1.2940477308        0.1460915897
 S          4.7918277090        0.1554053473        0.7294699173
 O          6.1598603482        0.2231291049        0.2678574506
 O          4.5911644353        0.2018941595        2.1543340188
 C          3.8208685157        1.4070487591       -0.0901193169
 C          2.5112483921        1.5966443520        0.3029812227
 C          1.7258274484        2.4990239660       -0.3967790015
 C          2.2631355266        3.1981403981       -1.4664033730
 C          3.5839376722        3.0034762819       -1.8435810042
 C          4.3696004124        2.0922799651       -1.1570602627
 H          5.3974574507        1.9015525086       -1.4209526802
 H          3.9987700015        3.5518199365       -2.6742466977
 H          1.6468635216        3.8976087908       -2.0096712886
 H          0.6932928553        2.6164082939       -0.1095403929
 H          2.1083657459        1.0420049937        1.1348124717
 H          4.3341691179       -1.3309269456       -0.8530238117
 H          3.4165046580       -2.0158426839        2.5391786877
 H          1.1014368607       -2.6082017088        3.2163621309
 H         -0.7301647297       -2.4877245722        1.5768133633
 C         -0.6303842736       -1.7525421630       -1.0087258096
 H         -0.8693552086       -2.7731338360       -1.3430668765
 C         -0.3091856104       -0.9023332199       -2.2230215321
 C          0.3091902433       -1.5143060479       -3.4433490934
 C         -1.1257494212       -1.0830479603       -3.4658973394
 H         -1.3952285846       -0.2092298555       -4.0397836539
 H         -1.8909951280       -1.8458040591       -3.4472894475
 H          1.0242794516       -0.9332282054       -4.0065862259
 H          0.5162386677       -2.5738816172       -3.4244054570
 H         -0.0214322292        0.1082743799       -1.9548842683
 O         -0.8261298391        0.7409717810        0.4137886288
