  62
        -98.93638066
 C         -1.6702520437       -1.4319443959        0.3234570481
 C         -1.9056061171       -0.1910375787        0.9695847642
 C         -3.1358783090        0.5348933178        0.6074702727
 C         -3.9546142384        0.0127023167       -0.3246382056
 C         -5.3021894334        0.4689707772       -0.8442011189
 C         -5.8255233612        1.8695651346       -0.5391337681
 C         -5.0555455734        2.9955504848       -1.2266405853
 H         -5.2369943276        2.9358230599       -2.3028032506
 H         -5.4551184680        3.9492489303       -0.8748823695
 C         -3.5453861998        2.9771692484       -1.0076065409
 H         -3.1219691444        2.0723862631       -1.4490235914
 H         -3.1191307972        3.8286026104       -1.5453929307
 C         -3.1016332678        3.0763398182        0.4503368673
 H         -3.5772190825        3.9403312136        0.9185665238
 H         -2.0235109966        3.2477240255        0.4510442534
 C         -3.3748900304        1.8359904984        1.3196324458
 H         -4.3814077163        1.8596992969        1.7326018387
 H         -2.6764954526        1.8520954644        2.1614395430
 H         -5.8633430541        2.0331100706        0.5338252673
 H         -6.8564982375        1.9033955472       -0.9017072623
 H         -5.2685619221        0.3275886645       -1.9292955621
 H         -6.0244911799       -0.2614584925       -0.4627677766
 O         -3.6602822391       -1.1585738557       -0.9572636722
 C         -2.5327630332       -1.9085704638       -0.6622141758
 O         -2.4390432019       -2.9454780161       -1.3477808497
 O         -1.1278412494        0.2800311446        1.8410963505
 C         -0.4443556880       -2.2091271118        0.7707440219
 C          0.7384366826       -1.9751723239       -0.1377355040
 C          0.6808818334       -2.2712923461       -1.4953555040
 C          1.7752878915       -2.0451389033       -2.3109494457
 C          2.9497892238       -1.5286013266       -1.7913997322
 C          3.0175461326       -1.2316781141       -0.4374518184
 C          1.9159199801       -1.4532857190        0.3790527356
 H          1.9708760506       -1.2032047666        1.4300926686
 N          4.2133457195       -0.6916836244        0.0884042906
 S          4.5666265880        0.8793584433       -0.3784854919
 O          4.6728419841        0.9247698511       -1.8133626558
 O          5.7436524433        1.2565253231        0.3690313706
 C          3.1596805464        1.8229820666        0.1764714348
 C          3.2275558612        2.4712543652        1.3935415524
 C          2.1026230907        3.1263566915        1.8665370423
 C          0.9318289137        3.1090986932        1.1247295667
 C          0.8783898095        2.4492862152       -0.0927229956
 C          2.0016378387        1.7975055428       -0.5749952294
 H          1.9947670489        1.2752548025       -1.5184265464
 H         -0.0369333437        2.4260123929       -0.6633169312
 H          0.0529195538        3.6070443422        1.5030505624
 H          2.1368914896        3.6402917545        2.8137395014
 H          4.1579841152        2.4564817000        1.9384477643
 H          4.2618821641       -0.7467338277        1.0968738739
 H          3.8054552362       -1.3324889678       -2.4165938141
 H          1.7142772890       -2.2767803783       -3.3637342672
 H         -0.2328342882       -2.6732987173       -1.9057774355
 H         -0.1908703703       -1.7960148518        1.7565870238
 C         -0.6996106563       -3.6960844719        0.9275959711
 C          0.1744179132       -4.4920762197        1.8476438490
 C         -1.2503796401       -4.2137207845        2.2206935720
 H         -1.9633195968       -5.0237267926        2.1881878599
 H         -1.4414977066       -3.4966123067        3.0058777659
 H          0.4444877779       -5.4962798276        1.5594288147
 H          0.9498586689       -3.9659851657        2.3836634516
 H         -1.0389225859       -4.1724233797        0.0173579098
