  62
        -98.94360154
 C         -1.7212994612       -1.0894247125       -0.5660642599
 C         -1.8667010645       -0.0724979633        0.4086936884
 C         -3.2386932924        0.1629392629        0.8773422235
 C         -4.2483488707       -0.5880406812        0.4013204803
 C         -5.6946896542       -0.4851731178        0.8039958826
 C         -6.4763211000        0.6027930471        0.0548892859
 C         -6.1443227956        2.0390898016        0.4614776305
 H         -6.2207344378        2.1351333353        1.5450008171
 H         -6.9112118829        2.6808472022        0.0230418417
 C         -4.7657292813        2.5267118662       -0.0056485859
 H         -4.8611870657        3.5245528224       -0.4396459708
 H         -4.3953602638        1.8685199352       -0.7949216399
 C         -3.7144729465        2.6117621127        1.1010096731
 H         -4.0120975781        3.3674145714        1.8313561437
 H         -2.7698267386        2.9284361204        0.6522418212
 C         -3.4673143878        1.2896250841        1.8391302271
 H         -4.3050284992        1.0642934345        2.4987869914
 H         -2.5631033448        1.3963306510        2.4432274376
 H         -7.5381547782        0.4299886095        0.2452271502
 H         -6.3070519970        0.4787828741       -1.0172482617
 H         -6.1494193613       -1.4523014124        0.5786011783
 H         -5.7646472556       -0.3109225958        1.8781276578
 O         -4.0600069397       -1.5750403336       -0.5158398204
 C         -2.8009340141       -1.8388128522       -1.0312802410
 O         -2.7728095344       -2.7573268820       -1.8763949958
 H          2.1725892359       -0.4640242235       -0.5269769321
 C          1.8250188915       -1.2067223429        0.1690889995
 C          0.5828437463       -1.7937004557       -0.0048778477
 C          0.1767485753       -2.7766418969        0.8944615440
 C          0.9895106958       -3.1455104815        1.9483038615
 C          2.2206307302       -2.5402347204        2.1323132373
 C          2.6379725080       -1.5619257034        1.2377248677
 N          3.8525475149       -0.9005588668        1.4293833580
 S          4.6430492523       -0.0442551792        0.2453666012
 O          4.7366061164       -0.7922111105       -0.9871691118
 O          5.9052201825        0.3152954387        0.8559579496
 C          3.6607070855        1.4202070163       -0.0041383490
 C          3.0609464774        2.0277575112        1.0801808236
 C          2.2980311223        3.1651055435        0.8712720043
 C          2.1527113242        3.6761876840       -0.4089720634
 C          2.7694899637        3.0601251210       -1.4868053459
 C          3.5322392163        1.9214915491       -1.2843906033
 H          4.0194823355        1.4019019383       -2.0946110746
 H          2.6541313140        3.4588777900       -2.4822914668
 H          1.5516067114        4.5576251666       -0.5684560409
 H          1.8111223008        3.6432470363        1.7057760916
 H          3.1829827776        1.6017538096        2.0620014737
 H          4.4459518716       -1.2346695629        2.1716359533
 H          2.8497742067       -2.8182252165        2.9638807639
 H          0.6613790169       -3.9090714714        2.6377093237
 H         -0.7898402582       -3.2429224263        0.7572261882
 C         -0.3457225569       -1.4003962822       -1.1278275437
 H         -0.4727568315       -2.2699171114       -1.7893248937
 C          0.1557988000       -0.2294885135       -1.9475023013
 C          1.1242665279       -0.4518994997       -3.0684877950
 C         -0.2987789013       -0.0902160893       -3.3679765533
 H         -0.5113240436        0.8978211950       -3.7473608937
 H         -0.9522725261       -0.8576588924       -3.7573245667
 H          1.4451228805       -1.4649026768       -3.2598158380
 H          1.8906352245        0.2880957214       -3.2419118232
 H          0.2520414456        0.6782145358       -1.3619370309
 O         -0.9078377447        0.6000869214        0.8660487465
