  62
        -98.93442990
 C         -1.9390788697       -0.4084695306        0.7671568704
 C         -2.7789562396       -0.7565671406       -0.3156309497
 C         -4.1324899398       -0.1630062010       -0.3202117796
 C         -4.4759729600        0.7065856887        0.6455513706
 C         -5.7819668603        1.4319372883        0.8514783107
 C         -6.4505217704        2.0294667484       -0.3960286891
 C         -7.7187484802        1.2876227981       -0.8225086393
 H         -8.2740530901        1.0052677978        0.0744669606
 H         -8.3492675104        1.9735106881       -1.3927968291
 C         -7.4880820799        0.0475040284       -1.6842550596
 H         -8.4492075397       -0.4596517518       -1.7974911497
 H         -7.1640585599        0.3551378187       -2.6808592195
 C         -6.4683691696       -0.9499963814       -1.1316331998
 H         -6.5883501896       -1.0605099817       -0.0544153498
 H         -6.6792862193       -1.9245298614       -1.5771053200
 C         -5.0129968697       -0.5881441710       -1.4637323497
 H         -4.9867028399        0.1852621292       -2.2365538795
 H         -4.5074040794       -1.4581942307       -1.8937276399
 H         -6.7268250307        3.0591357483       -0.1627408389
 H         -5.7373897204        2.0667844688       -1.2179862291
 H         -6.4768300201        0.7549373180        1.3552261406
 H         -5.5525449005        2.2269464582        1.5649209109
 O         -3.6189214301        1.0435492687        1.6523015607
 C         -2.3554589700        0.4974846891        1.7462030206
 O         -1.7007246901        0.8881738090        2.7347508806
 O         -2.4446018194       -1.5335227303       -1.2484541899
 C         -0.5338635896       -0.9604063903        0.9494282502
 C          0.4574125502       -0.2125416398        0.0903438504
 C          0.4456907102       -0.3122349295       -1.2966884096
 C          1.3745641100        0.3760064009       -2.0561871095
 C          2.3381645698        1.1644626511       -1.4524390193
 C          2.3600677998        1.2671790508       -0.0680063193
 C          1.4235011300        0.5805476603        0.6929382906
 H          1.4344198500        0.6771874601        1.7705303006
 N          3.3602555496        2.0410541309        0.5484769409
 S          4.9367972397        1.7307351914        0.0682207608
 O          5.7576957996        2.0530216014        1.2142938709
 O          5.2267081195        2.4632781918       -1.1388481690
 C          4.9691169402       -0.0226250685       -0.2640144095
 C          4.7064971504       -0.8868880188        0.7806821203
 C          4.6653484408       -2.2483905587        0.5302294900
 C          4.8846286909       -2.7203799984       -0.7549330201
 C          5.1548598207       -1.8408567081       -1.7912174799
 C          5.1949366503       -0.4774029981       -1.5468411496
 H          5.3961230901        0.2411993521       -2.3244234095
 H          5.3276188108       -2.2112934378       -2.7887575300
 H          4.8450070912       -3.7807356284       -0.9478188403
 H          4.4569158010       -2.9356844390        1.3345185398
 H          4.5462973003       -0.4877752290        1.7695886904
 H          3.2868798296        2.0743754007        1.5548902109
 H          3.0700501597        1.7064510014       -2.0294916492
 H          1.3500346401        0.2961459511       -3.1322347195
 H         -0.3100949996       -0.9178416096       -1.7717342697
 H         -0.2797299996       -0.7598479804        1.9989933503
 C         -0.4348676492       -2.4551204902        0.7136689099
 C          0.7396000810       -3.1939377000        1.2783320398
 C         -0.6246938089       -3.3916210705        1.8667053797
 H         -1.1342226987       -4.3271154406        1.6911489495
 H         -0.8323923090       -2.9585075207        2.8347755998
 H          1.1702264812       -3.9950680597        0.6983876996
 H          1.4591600109       -2.6244297999        1.8471038699
 H         -0.8147946991       -2.7675452301       -0.2490897301
