  62
        -98.93812133
 C         -2.4533056319       -0.8824361752        0.8114354243
 C         -3.5105377289       -0.9040795641       -0.1312392802
 C         -4.5753946309        0.0861909297        0.0836117527
 C         -4.5030348477        0.9449795675        1.1156575627
 C         -5.5211910864        1.9937070942        1.4726349589
 C         -5.3718113774        3.3044273704        0.6881216528
 C         -5.7917525017        3.2358283192       -0.7807099694
 H         -6.7943647750        2.8129919056       -0.8517713305
 H         -5.8449417987        4.2630510928       -1.1469056258
 C         -4.8313099667        2.4420953895       -1.6775419438
 H         -3.8709415519        2.3235148590       -1.1700165012
 H         -4.6394648863        3.0046323334       -2.5940957480
 C         -5.3444253606        1.0630799955       -2.0919810212
 H         -4.5694710314        0.5748653360       -2.6884143712
 H         -6.2318405243        1.1752177844       -2.7189805303
 C         -5.6903509133        0.1393608889       -0.9171364423
 H         -6.6141374757        0.4663567336       -0.4404729015
 H         -5.8352324850       -0.8709161096       -1.3074403370
 H         -5.9913909548        4.0538991271        1.1860193677
 H         -4.3326074805        3.6348195261        0.7543630871
 H         -6.5250377041        1.5936743066        1.3271303720
 H         -5.3837196212        2.2106419049        2.5341527387
 O         -3.4651635657        0.9413203811        1.9939824796
 C         -2.4181483289        0.0483355251        1.8542696318
 O         -1.5254821618        0.1716280235        2.7181227060
 O         -3.5903925199       -1.7016686542       -1.1013859787
 C         -1.2663533442       -1.8316506398        0.7440561896
 C         -0.2781607567       -1.3366473939       -0.2856660166
 C         -0.4889083541       -1.5030810957       -1.6499302402
 C          0.4345098005       -1.0243819098       -2.5620107098
 C          1.5792139063       -0.3722358404       -2.1388408109
 C          1.7954433632       -0.1943404954       -0.7788559269
 C          0.8709304872       -0.6821529048        0.1358958712
 H          1.0328033570       -0.5332997925        1.1956537871
 N          2.9435590818        0.4904794844       -0.3372888904
 S          4.4121837101        0.0659706961       -1.0589321514
 O          4.5201349565        0.7631512134       -2.3159539308
 O          4.5352820819       -1.3732371655       -1.1233884457
 C          5.5768461279        0.7400593552        0.1083442893
 C          5.8519481800        2.0937099187        0.0651430281
 C          6.7389129229        2.6256661204        0.9873635229
 C          7.3318846100        1.8005264353        1.9316499124
 C          7.0470182280        0.4436941350        1.9611815305
 C          6.1594009981       -0.0947356539        1.0428049119
 H          5.9143833109       -1.1446529462        1.0233750798
 H          7.5119304670       -0.1955862628        2.6943724030
 H          8.0227386265        2.2170077657        2.6475950495
 H          6.9652908527        3.6794850052        0.9666116673
 H          5.3748297927        2.6941436632       -0.6916723532
 H          3.0223663587        0.4827722074        0.6707689105
 H          2.3086313560       -0.0033387318       -2.8420191144
 H          0.2613853622       -1.1600476324       -3.6192784767
 H         -1.3904816631       -1.9880507584       -1.9893371891
 H         -0.7810446939       -1.7645506739        1.7271214914
 C         -1.6646972924       -3.2745686402        0.5086360385
 C         -0.6708120152       -4.3543348749        0.8097283240
 C         -1.8736398504       -4.1765902358        1.6858825601
 H         -2.6621595223       -4.9123494043        1.6366455523
 H         -1.7300214331       -3.7566062262        2.6710280165
 H         -0.6301681605       -5.2132380056        0.1577062474
 H          0.2907215196       -4.0537844998        1.1986646369
 H         -2.3177669481       -3.4130373648       -0.3419484219
