  62
        -98.94410777
 C          2.0559884042        1.2828173145       -0.1304851854
 C          2.4542113999        0.2244684787       -0.9825390012
 C          3.8588839868       -0.1962989335       -0.8662330672
 C          4.6704615183        0.4357323335        0.0005270640
 C          6.1039048029        0.0729907351        0.2564881174
 C          6.2233887206       -0.9373699753        1.4060281395
 C          5.2831656223       -2.1357484739        1.2750210576
 H          5.4777455619       -2.7956556557        2.1232600523
 H          4.2499910886       -1.7922902545        1.3669534171
 C          5.4389812780       -2.9253226439       -0.0322082790
 H          5.4434309746       -3.9920260971        0.2017674490
 H          6.3988126900       -2.6914641706       -0.4943752020
 C          4.3183647977       -2.6981876861       -1.0487112520
 H          4.4086490800       -3.4588577591       -1.8289266108
 H          3.3487886077       -2.8412146770       -0.5641516315
 C          4.3138535839       -1.3297173249       -1.7418035831
 H          5.3020765588       -1.1243698293       -2.1583408991
 H          3.5962632765       -1.3784949917       -2.5660922292
 H          7.2564612899       -1.2866249689        1.4530089487
 H          5.9949529373       -0.4245185151        2.3431527675
 H          6.6458463810        0.9811837371        0.5255316267
 H          6.5369220593       -0.3410738764       -0.6519394733
 O          4.2561407491        1.4597896508        0.7890417257
 C          2.9419678801        1.8926442500        0.7606324055
 O          2.6881869967        2.8169498550        1.5584603784
 O          1.6878844519       -0.3424539417       -1.8049817342
 C          0.6204364276        1.7837378763       -0.1215412621
 C         -0.2649924141        0.6852738698        0.4133430707
 C         -0.2905007043        0.4456636727        1.7845347583
 C         -1.0707322922       -0.5660667816        2.3121378987
 C         -1.8401186036       -1.3633665699        1.4822989649
 C         -1.8138232439       -1.1369296373        0.1133304458
 C         -1.0393875989       -0.1121041469       -0.4140990660
 H         -1.0213784547        0.0436348579       -1.4808069096
 N         -2.6096555540       -1.9362737092       -0.7316862896
 S         -4.2491698620       -1.9413633002       -0.3855018183
 O         -4.5061742251       -2.8387396838        0.7126816609
 O         -4.9103130478       -2.2588653998       -1.6314761109
 C         -4.5944389691       -0.2615034689        0.1069190565
 C         -4.8573946417        0.0286290158        1.4298560463
 C         -5.0445819962        1.3506939596        1.8007043623
 C         -4.9587540093        2.3541318594        0.8484377723
 C         -4.6954258389        2.0461523406       -0.4776528631
 C         -4.5081551931        0.7265332759       -0.8539875432
 H         -4.3078912066        0.4503259652       -1.8767786097
 H         -4.6295520226        2.8291117294       -1.2160591357
 H         -5.0980279290        3.3832081046        1.1401879256
 H         -5.2505706390        1.5938027953        2.8306255841
 H         -4.9127849654       -0.7813397669        2.1384255824
 H         -2.4525510272       -1.7559763724       -1.7128655127
 H         -2.4574568914       -2.1568298936        1.8717470784
 H         -1.0810612432       -0.7370361694        3.3778905907
 H          0.3174832348        1.0639798168        2.4307865761
 H          0.5983136748        2.6144727129        0.5961995655
 C          0.1942616856        2.3015840887       -1.4796349703
 C         -1.0699447947        3.0987078928       -1.5927349519
 C          0.2589344852        3.7719968232       -1.7560609794
 H          0.5558302930        4.0973947678       -2.7419589936
 H          0.6100196506        4.4143685066       -0.9617829505
 H         -1.6869673494        2.9650516553       -2.4681606793
 H         -1.6246047469        3.2799055772       -0.6845271765
 H          0.4499298625        1.6335645292       -2.2928663452
