  62
        -98.93965118
 C          2.1505143616        0.7770400977        0.8085379789
 C          2.8824221410       -0.3860739910        1.1620980352
 C          4.2956589623       -0.4112805875        0.7725250294
 C          4.8292843628        0.6495391065        0.1406270368
 C          6.2608164183        0.7916693660       -0.3002047964
 C          6.5625241783        0.1425054058       -1.6578465471
 C          6.5951055379       -1.3863423222       -1.6546542195
 H          7.0293286937       -1.6996122925       -2.6061614909
 H          7.2607806886       -1.7329730110       -0.8635780572
 C          5.2190957066       -2.0490869436       -1.4989551238
 H          4.4352722466       -1.3197904381       -1.7164434170
 H          5.1175354679       -2.8543750567       -2.2299993599
 C          4.9592827460       -2.6552819448       -0.1196669927
 H          3.9445146882       -3.0617914868       -0.1096362633
 H          5.6540761026       -3.4797250305        0.0557082846
 C          5.0807623660       -1.6592471242        1.0411250450
 H          6.1281413024       -1.4189416757        1.2232052476
 H          4.6665412885       -2.1257131472        1.9384461139
 H          5.8229584022        0.4895319179       -2.3830483509
 H          7.5410461445        0.5045924146       -1.9815225012
 H          6.4566123760        1.8631345076       -0.3796938582
 H          6.9211460628        0.3729506272        0.4597525693
 O          4.1034235403        1.7560718740       -0.1615126591
 C          2.7456134434        1.8425890353        0.1311306406
 O          2.2216816365        2.9015967414       -0.2579712706
 O          2.3746397190       -1.3570998374        1.7857112721
 C          0.6838917517        0.7951607842        1.1964698812
 C         -0.1784198080        0.2170651231        0.1023801219
 C         -0.0138474716        0.5974696200       -1.2265118485
 C         -0.8122334400        0.0554429744       -2.2167041821
 C         -1.8046295808       -0.8563384924       -1.8996062812
 C         -1.9834323769       -1.2352910234       -0.5753974144
 C         -1.1638536205       -0.7081840033        0.4138363638
 H         -1.3096188166       -1.0264418049        1.4347710305
 N         -3.0002078633       -2.1407395679       -0.2059873261
 S         -4.2258670138       -1.5339997357        0.7631297530
 O         -3.6679572322       -1.0424506177        1.9951243868
 O         -5.1980005905       -2.5979328647        0.8661132804
 C         -4.9013048305       -0.1862677327       -0.1916753510
 C         -5.9893964847       -0.4221541652       -1.0092281051
 C         -6.4652712319        0.6072970228       -1.8052548483
 C         -5.8407792011        1.8453165380       -1.7788718527
 C         -4.7470298866        2.0650423310       -0.9555096329
 C         -4.2696214376        1.0408322924       -0.1531214729
 H         -3.4256439229        1.1791307579        0.5022727080
 H         -4.2598389218        3.0267834120       -0.9334151126
 H         -6.2086107857        2.6451486987       -2.4020186155
 H         -7.3175994185        0.4408910765       -2.4441506561
 H         -6.4459659989       -1.3987229871       -0.9946046760
 H         -3.4081814842       -2.6320114882       -0.9897196844
 H         -2.4329194777       -1.2743792357       -2.6717246683
 H         -0.6683143052        0.3545544182       -3.2437447563
 H          0.7422297241        1.3283404563       -1.4708882750
 H          0.6133828237        0.1118113512        2.0582178103
 C          0.1929710072        2.1612014383        1.6586504712
 C         -0.8429663948        2.9495254921        0.9198911972
 C         -1.1897760879        2.2997735632        2.2242489217
 H         -1.3310028670        2.9253947110        3.0927873110
 H         -1.8236740737        1.4238988256        2.2132035944
 H         -0.7259459818        4.0218954507        0.8901364959
 H         -1.2469144868        2.5313999191        0.0109904048
 H          0.9765205517        2.7325876657        2.1446909303
