  62
        -98.93508339
 C          1.6813046395        0.4102768395       -0.2688912003
 C          2.8199789597        1.1975634294        0.0387574593
 C          4.1317290296        0.6450162090       -0.3361811906
 C          4.1920064893       -0.5648324812       -0.9173678202
 C          5.4040371590       -1.3052811916       -1.4252923901
 C          6.6654780392       -1.2849454016       -0.5516448702
 C          6.4054639793       -1.2586200709        0.9615854098
 H          5.3525944093       -1.4633058307        1.1636687600
 H          6.9876009592       -2.0513045309        1.4353129000
 C          6.8024396197        0.0686546092        1.6123541493
 H          7.7627985697        0.3866709189        1.2006666590
 H          6.9442643498       -0.0943752804        2.6834579493
 C          5.7912645599        1.2039373694        1.4576190190
 H          6.2420773601        2.1130888494        1.8626089086
 H          4.9024588699        0.9927748298        2.0581609091
 C          5.3248411798        1.4849146489        0.0197977689
 H          4.9874531700        2.5239420290       -0.0260074914
 H          6.1367250597        1.3522426685       -0.6911784111
 H          7.2394235389       -2.1773037018       -0.8073287200
 H          7.2820679493       -0.4285386218       -0.8210361906
 H          5.0691584488       -2.3365744816       -1.5611202696
 H          5.6492114890       -0.9141704321       -2.4172087602
 O          3.0757290991       -1.3070314011       -1.1600132398
 C          1.8005769092       -0.8571242907       -0.8389047998
 O          0.9014760590       -1.6746346006       -1.1082432294
 O          2.7438186900        2.3224266697        0.5997181689
 C          0.3218254597        0.9740556400        0.1038608597
 C         -0.5033882404       -0.0605995796        0.8237216102
 C         -0.1161426204       -0.4604399692        2.1004458303
 C         -0.8378531405       -1.4134828088        2.7918253807
 C         -1.9756158206       -1.9711911788        2.2348198011
 C         -2.3687309707       -1.5811343392        0.9605811010
 C         -1.6330050006       -0.6329331796        0.2620555705
 H         -1.9284872407       -0.3864985599       -0.7433023195
 N         -3.5155852009       -2.1258632892        0.3708285913
 S         -4.4461073808       -1.2289500094       -0.6796951189
 O         -5.7622114110       -1.8264912291       -0.5870551385
 O         -3.8643332810       -1.2064080400       -1.9979031190
 C         -4.4843312004        0.4237744009       -0.0047499595
 C         -4.1662097003        1.4934067805       -0.8161333300
 C         -4.1995639300        2.7736275207       -0.2863146404
 C         -4.5464633298        2.9607776513        1.0424860295
 C         -4.8698185499        1.8766593116        1.8440495300
 C         -4.8420025002        0.5953880214        1.3179123005
 H         -5.0951255303       -0.2649062283        1.9154767808
 H         -5.1410561198        2.0260771121        2.8766224100
 H         -4.5650489496        3.9573705814        1.4544134992
 H         -3.9505209699        3.6175470804       -0.9100540908
 H         -3.8930137305        1.3012100401       -1.8415755099
 H         -4.0642718810       -2.7355676489        0.9575018416
 H         -2.5443369107       -2.7137873485        2.7733638814
 H         -0.5194852804       -1.7204037285        3.7766959308
 H          0.7696310398       -0.0205906592        2.5381644300
 H          0.5516277899        1.7811752702        0.8194728394
 C         -0.4271034503        1.6226060297       -1.0502515105
 C          0.3050773297        2.3181576391       -2.1571944308
 C         -0.4369514206        1.0462800292       -2.4328870602
 H         -1.3542129407        1.0916498791       -3.0026147401
 H          0.1277357292        0.1432154890       -2.6055286800
 H         -0.0980319202        3.2438863990       -2.5389565711
 H          1.3847409197        2.2840137389       -2.1419462209
 H         -1.3489943202        2.0884336700       -0.7143241705
