  62
        -98.94873390
 C         -1.7880848571       -1.1617244288       -0.2770705571
 C         -0.7670345269       -1.6782503454       -1.1083030896
 C          0.1421808313       -2.6430349733       -0.4832647012
 C         -0.0140097032       -2.9599023228        0.8150145944
 C          0.8125884147       -3.9515668787        1.5883907543
 C          2.1308849308       -3.3781819807        2.1248789985
 C          3.2192485835       -3.1651444616        1.0723931158
 H          4.1555234700       -3.0016958109        1.6099028546
 H          3.3364586621       -4.0736734419        0.4803983073
 C          2.9710082472       -1.9669793685        0.1454467305
 H          2.2376369919       -1.2973457325        0.6032707364
 H          3.8966044508       -1.3970471103        0.0398859515
 C          2.5095465846       -2.3315222824       -1.2656922891
 H          3.3141808190       -2.8534349847       -1.7887554312
 H          2.3017291470       -1.4030182108       -1.8042915785
 C          1.2517025336       -3.2069886181       -1.3192521464
 H          0.9013172804       -3.2365113955       -2.3541241892
 H          1.4869363683       -4.2222342279       -0.9998853947
 H          1.9205491540       -2.4286579826        2.6241947526
 H          2.5092207683       -4.0754084190        2.8764809364
 H          0.2025549155       -4.2674219254        2.4375617333
 H          1.0193442324       -4.8226851291        0.9652827273
 O         -0.9914100954       -2.4197398164        1.5897650076
 C         -1.8790782979       -1.4870659920        1.0760723153
 O         -2.6993990238       -1.0470717969        1.9057389145
 O         -0.6276634759       -1.3522367874       -2.3188692153
 C         -2.7510067302       -0.1367458738       -0.8485842518
 C         -2.5575567409        1.1788848566       -0.1358653380
 C         -3.5997198954        1.9804937264        0.3090842304
 C         -3.3319444358        3.1588535472        0.9856659696
 C         -2.0318026469        3.5550262176        1.2375678643
 C         -0.9806300629        2.7663650446        0.7802945594
 C         -1.2522286634        1.6033713019        0.0807378248
 H         -0.4366989385        0.9825667629       -0.2602159425
 N          0.3519160360        3.1514494867        0.9881194267
 S          1.5922484954        2.0452735611        1.1653577289
 O          1.1196470633        0.7546828291        1.6121891636
 O          2.5483022557        2.6983493909        2.0360658647
 C          2.3279954516        1.8997219290       -0.4531870398
 C          1.6568943628        2.2795755706       -1.5972359868
 C          2.2819176483        2.1151369319       -2.8246135336
 C          3.5585968325        1.5808997292       -2.8896571376
 C          4.2261513485        1.2173500032       -1.7302343278
 C          3.6071801309        1.3794413952       -0.5017940913
 H          4.0906745243        1.1204274760        0.4265067644
 H          5.2222372986        0.8077371479       -1.7795284973
 H          4.0362387361        1.4500285708       -3.8477467977
 H          1.7636683149        2.4021610780       -3.7255169967
 H          0.6647294974        2.6943478722       -1.5295855028
 H          0.4823247192        3.9524489921        1.5872704338
 H         -1.8266393143        4.4623561331        1.7848839367
 H         -4.1495813740        3.7705774532        1.3357340328
 H         -4.6200635502        1.6777632527        0.1404265577
 H         -2.4482417135       -0.0070930904       -1.8988434725
 C         -4.1754592287       -0.6465958692       -0.8102567369
 C         -5.1693985575       -0.1876670889       -1.8341464749
 C         -4.6363323850       -1.5870662254       -1.8820183200
 H         -5.2901678783       -2.4008475828       -1.6067668533
 H         -3.9274076421       -1.8401389978       -2.6567810262
 H         -6.1944481595       -0.0417287092       -1.5284693059
 H         -4.8281397248        0.5089834049       -2.5846961700
 H         -4.5237603459       -0.8294747998        0.2000576028
