  62
        -98.94150501
 C          1.7661942707        1.4148132589       -0.0566788410
 C          2.9110536207        0.7787789888        0.4786657589
 C          3.3285425601       -0.4825532717       -0.1559489705
 C          2.5985814895       -0.9707293921       -1.1737953599
 C          2.7794941788       -2.2832081325       -1.8840174992
 C          1.9057053588       -3.3640381419       -1.2224466682
 C          2.5801137290       -4.1182426814       -0.0779465481
 H          1.8261141090       -4.7737168209        0.3643395427
 H          3.3763875087       -4.7503107619       -0.4782196080
 C          3.1601116597       -3.2290758009        1.0248945412
 H          3.2552865099       -3.8339056304        1.9292539215
 H          2.4518794001       -2.4278420906        1.2483512410
 C          4.5353861998       -2.6434966416        0.6706532803
 H          5.2308072700       -2.8367396313        1.4901957101
 H          4.9297953792       -3.1672346922       -0.2001626196
 C          4.5603628301       -1.1287916717        0.4174293893
 H          4.7299002407       -0.6062783812        1.3642949890
 H          5.4118047599       -0.8904820024       -0.2292393512
 H          0.9956814891       -2.8843238414       -0.8494405281
 H          1.6081235982       -4.0916509923       -1.9806974077
 H          3.8252196287       -2.5765029629       -1.9007304295
 H          2.4365270084       -2.1355764331       -2.9101401392
 O          1.5104262395       -0.3245176920       -1.6673294799
 C          1.0439013301        0.8501720984       -1.1081344104
 O          0.0054071900        1.2855800484       -1.6419669702
 O          3.5483329313        1.2380626592        1.4667374883
 C          1.2440392114        2.6541951294        0.6495964485
 C         -0.2321997786        2.4836803900        0.9126437992
 C         -1.1964346084        3.4373751801        0.6151172390
 C         -2.5360521984        3.1802455707        0.8554923197
 C         -2.9446573686        1.9615989111        1.3647104006
 C         -1.9858509987        1.0015101710        1.6670689808
 C         -0.6447822987        1.2816708005        1.4761894601
 H          0.0862160712        0.5240273604        1.7209938702
 N         -2.3371603989       -0.2817491786        2.1426126217
 S         -2.0526563197       -1.5485294493        1.0759097123
 O         -2.4902217998       -2.7385580088        1.7753168032
 O         -0.6791221299       -1.5316410100        0.6470253018
 C         -3.1694752402       -1.2205583798       -0.2762587974
 C         -2.8275925903       -0.2841476705       -1.2309966681
 C         -3.7520854406        0.0232604792       -2.2188520079
 C         -4.9893447108       -0.6011337004       -2.2342570870
 C         -5.3150670407       -1.5408111697       -1.2672518763
 C         -4.4003015104       -1.8499093094       -0.2744264565
 H         -4.6065819303       -2.5736562289        0.4976865940
 H         -6.2765477509       -2.0283425994       -1.2818633356
 H         -5.7025829511       -0.3540425307       -3.0047860869
 H         -3.4913855707        0.7546667387       -2.9669743984
 H         -1.8569537502        0.1878386393       -1.2069035588
 H         -3.2929113188       -0.3446497681        2.4679364621
 H         -3.9918212886        1.7485035015        1.5194193812
 H         -3.2737340883        3.9314274508        0.6181257996
 H         -0.9041657183        4.3759861698        0.1738456383
 H          1.7639036318        2.6497411999        1.6231593482
 C          1.5982844615        3.9716370589       -0.0233141225
 C          2.7520527011        4.0688356480       -0.9750277830
 C          1.3499073109        4.2139489481       -1.4810490225
 H          1.0170863411        5.1946492580       -1.7881110330
 H          0.9226809005        3.4051690879       -2.0520974119
 H          3.3801310914        4.9460117878       -0.9303675638
 H          3.2877564207        3.1593421677       -1.2065220727
 H          1.4585453020        4.8182674794        0.6418481571
