  62
        -98.94517688
 C          2.5207048096       -0.3217204076       -0.0475049852
 C          2.1923336820       -1.3247028182        0.8941416963
 C          1.5348799523       -2.5230525415        0.3601025251
 C          1.2975713804       -2.6073176142       -0.9617292743
 C          0.6402297332       -3.7737719004       -1.6416440542
 C         -0.8757904395       -3.5827788462       -1.7738256772
 C         -1.5724142132       -3.1835497094       -0.4727757334
 H         -1.2728970998       -2.1672734945       -0.2056652266
 H         -2.6450874959       -3.1485377650       -0.6799041675
 C         -1.3126930567       -4.1207891891        0.7142458697
 H         -2.2575646907       -4.2877381935        1.2355518684
 H         -0.9619914306       -5.0895030848        0.3549854567
 C         -0.3275411072       -3.5715512331        1.7484012854
 H         -0.4228882046       -4.1667847040        2.6609815419
 H         -0.6026746756       -2.5420431811        1.9963229063
 C          1.1512358891       -3.5965339554        1.3389354096
 H          1.7500625827       -3.4102384817        2.2355693413
 H          1.4099406019       -4.5849540472        0.9522602985
 H         -1.0629805081       -2.7946164645       -2.5067677036
 H         -1.3064518383       -4.5133243333       -2.1498520175
 H          1.0705442855       -3.8692372790       -2.6404535838
 H          0.8543352017       -4.6793215019       -1.0764556225
 O          1.6320378594       -1.6265901573       -1.8380734721
 C          2.2003403949       -0.4409720649       -1.4001140736
 O          2.3963168112        0.3988477028       -2.2997164497
 H          0.5243141772        0.8263936685        0.9850930302
 C          0.7749534687        1.7988629026        0.5839891556
 C          2.0961844480        2.0837127601        0.2588781119
 C          2.3938856015        3.3521857180       -0.2184037387
 C          1.3886294637        4.2916789408       -0.3881914889
 C          0.0691106596        3.9824388760       -0.1143852083
 C         -0.2361558036        2.7160859189        0.3712817512
 N         -1.5890107267        2.3339034921        0.5836295407
 S         -1.9485479393        0.7067265559        0.3855517201
 O         -1.7062249394       -0.0480987177        1.6000149804
 O         -1.2978642786        0.2518615663       -0.8162896068
 C         -3.7065372255        0.8150363670        0.1082674858
 C         -4.5926726226        0.3505355730        1.0600290414
 C         -5.9539334216        0.4686923953        0.8242424014
 C         -6.4026163617        1.0489490236       -0.3519523554
 C         -5.5003832459        1.5094001026       -1.2999867700
 C         -4.1392738638        1.3923333138       -1.0702908664
 H         -3.3994304529        1.7274234849       -1.7788413385
 H         -5.8524243905        1.9579920563       -2.2149329790
 H         -7.4618479317        1.1414749830       -0.5328389727
 H         -6.6569024501        0.1087332850        1.5581145288
 H         -4.1966626005       -0.0977249629        1.9571399715
 H         -2.0122748153        2.7220635447        1.4141618930
 H         -0.7190549036        4.6996926679       -0.2762509716
 H          1.6377954730        5.2737529420       -0.7604943411
 H          3.4122574070        3.6043669743       -0.4662604572
 C          3.1131024425        0.9847082313        0.4525112909
 H          3.2580964786        0.8419695800        1.5348067731
 C          4.4529349407        1.2749762664       -0.1874643308
 C          5.4831827045        2.0744586223        0.5517738740
 C          5.6763249683        0.6017181001        0.3562173451
 H          6.4303514834        0.2650991837       -0.3390495570
 H          5.5453192888       -0.0505465123        1.2074701252
 H          6.1106716937        2.7502994345       -0.0091857755
 H          5.2296123581        2.4233832076        1.5414292059
 H          4.3821177328        1.3934878026       -1.2624827209
 O          2.4460911042       -1.2225766685        2.1274440384
