  62
        -98.94783495
 C         -1.0821454194       -1.1996124294        0.0441418896
 C         -1.5612301990       -0.1967007788        0.9190912192
 C         -2.4735796187        0.7913630612        0.3294332588
 C         -2.7812970088        0.7037039408       -0.9775400211
 C         -3.7193503385        1.6263274808       -1.6995013915
 C         -5.1598579286        1.0970377813       -1.6687543212
 C         -5.6370859487        0.6893825621       -0.2748251810
 H         -6.6746941589        0.3622211824       -0.3693814408
 H         -5.0565270590       -0.1727972080        0.0610137793
 C         -5.5452430483        1.8031236825        0.7775353685
 H         -5.4554840480        2.7717878323        0.2844519781
 H         -6.4723943383        1.8172830131        1.3543205385
 C         -4.4005059583        1.6362224926        1.7782191885
 H         -4.4323225287        0.6308571828        2.2052869390
 H         -4.5576845580        2.3453006130        2.5953452582
 C         -2.9896843483        1.8806163518        1.2277415784
 H         -2.9524948679        2.8470528316        0.7194879479
 H         -2.3039313582        1.9156842019        2.0797537883
 H         -5.8188858584        1.8685947114       -2.0711244215
 H         -5.2205330590        0.2235029610       -2.3219842808
 H         -3.6715940481        2.6130051110       -1.2420689419
 H         -3.3885853885        1.7051428402       -2.7368291516
 O         -2.3030657291       -0.2737122098       -1.7883432707
 C         -1.4332034295       -1.2413975199       -1.3054782303
 O         -1.0570116398       -2.0660564304       -2.1602896800
 H          0.9555185810       -0.0351015804       -0.6025336210
 C          1.6332644107       -0.8726600207       -0.6474538806
 C          1.2440553603       -2.0983577203       -0.1272530501
 C          2.1255293499       -3.1688286106       -0.2329005596
 C          3.3511787899       -3.0083537314       -0.8549529797
 C          3.7337316403       -1.7829264417       -1.3703641803
 C          2.8608124207       -0.7058604614       -1.2684874907
 N          3.1979826012        0.5498666483       -1.7882101613
 S          2.5491221417        1.9515954588       -1.1627877519
 O          1.1708381817        2.0998697291       -1.5619398019
 O          3.4509429320        2.9873577183       -1.6219755324
 C          2.6757476517        1.7833663595        0.6081802882
 C          3.9336792117        1.6339770993        1.1593581182
 C          4.0486136017        1.4606082199        2.5286604583
 C          2.9094102617        1.4313759206        3.3194945083
 C          1.6548190617        1.5915441908        2.7528558583
 C          1.5360040517        1.7737031303        1.3845601382
 H          0.5724791817        1.8917562404        0.9127343882
 H          0.7612039117        1.5517240614        3.3551052384
 H          2.9976643517        1.2834347211        4.3842400484
 H          5.0229287616        1.3411829097        2.9744145983
 H          4.7969957816        1.6646706187        0.5149429681
 H          4.1497742712        0.6577127978       -2.1031807114
 H          4.6886614504       -1.6607033123       -1.8574450304
 H          4.0219293596       -3.8499378116       -0.9367280094
 H          1.8473270996       -4.1308554104        0.1655609008
 C         -0.0900583697       -2.2155411495        0.5727940801
 H          0.0631968104       -1.9488440491        1.6304390199
 C         -0.6658012902       -3.6168252593        0.5052885307
 C         -0.3684134205       -4.6189082790        1.5796307311
 C         -1.7321779403       -4.0064848485        1.4838301709
 H         -2.5534896906       -4.6155395084        1.1371247412
 H         -2.0159529900       -3.2714240781        2.2230184806
 H         -0.2539073009       -5.6551984691        1.2991408316
 H          0.2654761796       -4.3069874888        2.3959204310
 H         -0.7694150504       -3.9720602597       -0.5138189091
 O         -1.2325828789       -0.1245245684        2.1342559592
