  62
        -98.94641502
 C         -1.5649872705       -1.0907249093        0.0360060305
 C         -2.6270961002       -0.8258118595        0.9373986709
 C         -3.3491262203        0.4364010005        0.7332596714
 C         -2.9462189207        1.2732506607       -0.2400913686
 C         -3.6121728408        2.5737373607       -0.5823392181
 C         -4.6895709512        2.3785456009       -1.6584993278
 C         -5.6584867210        1.2337232208       -1.3626983278
 H         -6.3907448813        1.2100105610       -2.1727601275
 H         -5.1137791310        0.2873285409       -1.3953088281
 C         -6.3884565206        1.3510263805       -0.0173379275
 H         -7.4447712207        1.1203695005       -0.1710665672
 H         -6.3316497805        2.3773691005        0.3470839627
 C         -5.8780819602        0.3995015803        1.0665323121
 H         -5.8473285903       -0.6200209796        0.6737090519
 H         -6.5946453100        0.4096336801        1.8921806724
 C         -4.5002768301        0.7331819002        1.6524816018
 H         -4.4802579500        1.7767978602        1.9726057920
 H         -4.3515902598        0.1010856901        2.5327832216
 H         -5.2470003912        3.3112215309       -1.7623287475
 H         -4.1955059815        2.1706373911       -2.6105065380
 H         -4.0552304106        2.9970107705        0.3168994821
 H         -2.8554339010        3.2621558108       -0.9621722282
 O         -1.9027991109        1.0015552309       -1.0630194490
 C         -1.1970322109       -0.1899062391       -0.9632366995
 O         -0.2909723911       -0.3096289489       -1.8094031998
 H          1.5240933891       -2.0527762990       -1.2434168107
 C          1.6591479394       -1.8163931292       -0.2002980407
 C          0.6069253097       -1.9739024294        0.6876569196
 C          0.8073134201       -1.6403163997        2.0247139996
 C          2.0292230103       -1.1619051397        2.4590815993
 C          3.0697550200       -0.9788852795        1.5642844390
 C          2.8734293496       -1.2971717592        0.2274923190
 N          3.9032752793       -1.0536195190       -0.6999776212
 S          4.6397779692        0.4475571510       -0.6098325712
 O          5.0509476588        0.7575241113       -1.9618288212
 O          5.7040194395        0.3963000409        0.3635163485
 C          3.3889272494        1.5968569309       -0.0542640005
 C          2.1755628992        1.6429616410       -0.7111634301
 C          1.2117704493        2.5368602108       -0.2731398097
 C          1.4743604496        3.3694941006        0.8031833404
 C          2.7009398698        3.3165271405        1.4472036300
 C          3.6670540997        2.4213727007        1.0177494695
 H          4.6298710998        2.3397998406        1.4957008292
 H          2.9043935700        3.9656245704        2.2836417301
 H          0.7177757597        4.0604722105        1.1405480508
 H          0.2564691691        2.5605456609       -0.7740147293
 H          1.9674543889        0.9824532011       -1.5380965102
 H          3.6367593890       -1.2585381088       -1.6525297712
 H          4.0242000601       -0.5877050995        1.8780286088
 H          2.1712640106       -0.9150888399        3.5000681093
 H         -0.0161893796       -1.7464832598        2.7168386298
 C         -0.7711239904       -2.3741384793        0.2246980200
 H         -1.2703878501       -2.9103647695        1.0423494500
 C         -0.7832031008       -3.2465951891       -1.0120956902
 C         -0.3379470407       -4.6737561791       -0.9071474107
 C         -1.7865656908       -4.3540841591       -1.1180029801
 H         -2.2259253211       -4.5600527989       -2.0826443100
 H         -2.4667897505       -4.4938542393       -0.2906889199
 H         -0.0333637504       -5.0290401693        0.0655800992
 H          0.2190976291       -5.1031810289       -1.7258775509
 H         -0.5490442511       -2.7085925489       -1.9226518902
 O         -2.9543910099       -1.6094588897        1.8674280708
