  62
        -98.94043048
 C         -0.6128216780       -1.8974086579       -0.1276730688
 C         -1.5981762622       -1.5534545105        0.8247745494
 C         -2.6298480295       -0.5903496299        0.3958277906
 C         -2.5874481558       -0.1075129465       -0.8588724831
 C         -3.5078816545        0.8927526139       -1.5095012202
 C         -3.7981728897        2.1598882208       -0.6891700350
 C         -5.2452388528        2.2417803557       -0.2017265364
 H         -5.4905540836        3.2881276642       -0.0070295933
 H         -5.9024236899        1.8952804861       -1.0019617870
 C         -5.5415080785        1.4540542422        1.0732395612
 H         -5.0732976315        1.9560059948        1.9231769246
 H         -6.6217550480        1.4811705770        1.2350036800
 C         -5.0844759555       -0.0068595808        1.0688324957
 H         -5.2744436927       -0.4675945361        0.1005562752
 H         -5.6906297438       -0.5444818294        1.8013056433
 C         -3.6130109393       -0.1970758636        1.4643211568
 H         -3.5366935992       -0.9932280703        2.2123756773
 H         -3.2361611495        0.7054153181        1.9583139552
 H         -3.6036802758        3.0257874681       -1.3240079842
 H         -3.1104940523        2.2209275885        0.1547374533
 H         -3.0245567570        1.1618191816       -2.4508100640
 H         -4.4446765407        0.3950021098       -1.7686790213
 O         -1.6413080310       -0.5012697208       -1.7585322901
 C         -0.6129125962       -1.3654175154       -1.4152318004
 O          0.2089517754       -1.5709615725       -2.3263511252
 O         -1.6148401984       -2.0282612426        1.9938750352
 C          0.5228217986       -2.8155310829        0.2851617135
 C          1.8200517518       -2.0433434994        0.2566920541
 C          2.9590999087       -2.4763413513       -0.4086340315
 C          4.1114763016       -1.7092361486       -0.3935137358
 C          4.1516717983       -0.5022393170        0.2789044777
 C          3.0199695990       -0.0640765313        0.9589573330
 C          1.8700745283       -0.8363901965        0.9458024916
 H          0.9984484416       -0.4912918128        1.4833615958
 N          3.0412377636        1.1441726640        1.6791307037
 S          1.7988049473        2.2494838299        1.5174821031
 O          2.3161300785        3.4559187008        2.1263608352
 O          0.5793945908        1.7265520883        2.0781725186
 C          1.6270778101        2.4887000330       -0.2387799072
 C          2.5262864461        3.3116395859       -0.8890205550
 C          2.4304341980        3.4518944297       -2.2635858718
 C          1.4495302523        2.7626369210       -2.9614231960
 C          0.5539943725        1.9420704867       -2.2938019841
 C          0.6425535014        1.8034219298       -0.9181927418
 H         -0.0361451570        1.1753592852       -0.3621670544
 H         -0.2013492137        1.3909493672       -2.8312694164
 H          1.3791288912        2.8644872862       -4.0328670484
 H          3.1209489151        4.0927336153       -2.7878140655
 H          3.2670089316        3.8365085147       -0.3077221583
 H          3.9325907794        1.6190891336        1.6572177519
 H          5.0504436828        0.0953148173        0.2872475019
 H          4.9889390973       -2.0547458440       -0.9183688002
 H          2.9444826290       -3.4120981516       -0.9421531543
 H          0.3139619464       -3.0838046850        1.3317353009
 C          0.5366922132       -4.0782131000       -0.5487924576
 C          1.1164534329       -5.3415194262        0.0115086743
 C         -0.3660023355       -5.2097783073       -0.1616364786
 H         -0.8483937777       -5.7753594292       -0.9446022428
 H         -0.9763030353       -5.0785105635        0.7202546878
 H          1.6514849527       -6.0032164244       -0.6526532940
 H          1.5135367039       -5.3068177032        1.0147991912
 H          0.6612844740       -3.8798087692       -1.6069254661
