  62
        -98.94129030
 C         -2.6729126937       -0.3388188335       -0.2896541368
 C         -2.2569639189       -1.1331723145        0.8078784554
 C         -1.6684283761       -2.4403814647        0.4651576368
 C         -1.5419617061       -2.7996961165       -0.8235035529
 C         -0.9464646663       -4.0912598203       -1.3052400500
 C          0.5578511046       -3.9630562104       -1.5760766567
 C          1.3470701204       -3.3292368158       -0.4300324456
 H          2.4022814457       -3.3516463571       -0.7140227102
 H          1.0687751210       -2.2762878239       -0.3408027597
 C          1.1706288751       -4.0193608191        0.9292645334
 H          2.1503459839       -4.1052000361        1.4039965939
 H          0.7872279617       -5.0310017351        0.7859708003
 C          0.2691364232       -3.2653343943        1.9090551215
 H          0.5785831389       -2.2176335720        1.9543591385
 H          0.4146093509       -3.6942697480        2.9046949892
 C         -1.2341575538       -3.3162153529        1.6066859651
 H         -1.5413860193       -4.3509732237        1.4362655011
 H         -1.7624818832       -2.9400510547        2.4879612769
 H          0.6983899552       -3.3430992194       -2.4645463305
 H          0.9538580665       -4.9589866972       -1.7859904369
 H         -1.4492010996       -4.3705277952       -2.2332623982
 H         -1.1262421269       -4.8638929716       -0.5596822661
 O         -1.9427432849       -2.0074149762       -1.8515891594
 C         -2.4850524009       -0.7588593886       -1.6090286548
 O         -2.7885797254       -0.1242605261       -2.6412639673
 O         -2.3775023745       -0.8035209611        2.0158801485
 C         -3.2364557823        1.0688283160       -0.1565810206
 C         -2.1261195371        2.0655101003       -0.3823637722
 C         -2.3176951784        3.2102892563       -1.1472006814
 C         -1.2686036297        4.0816606095       -1.3826659467
 C         -0.0030351278        3.8100613783       -0.8942220458
 C          0.1978600846        2.6663853823       -0.1306131709
 C         -0.8674040922        1.8240890329        0.1463841541
 H         -0.6947286522        0.9467133970        0.7516282835
 N          1.4674299678        2.3169908674        0.3623774198
 S          1.8452923601        0.6661732898        0.2487251748
 O          1.2901226382        0.1250816623       -0.9705370215
 O          1.4687904153        0.0229709133        1.4808775799
 C          3.6240206645        0.7338228644        0.1375310730
 C          4.3670990373        0.7915767927        1.3013157554
 C          5.7475236764        0.8759769346        1.2104955635
 C          6.3579103243        0.9021288244       -0.0346966384
 C          5.5989444680        0.8412797514       -1.1939394771
 C          4.2179437145        0.7577367287       -1.1101943211
 H          3.5868010436        0.6968526585       -1.9826086610
 H          6.0758863259        0.8574504823       -2.1606526658
 H          7.4322951401        0.9669028132       -0.1026264360
 H          6.3408367390        0.9198094474        2.1094326996
 H          3.8475219062        0.7581086307        2.2447247999
 H          2.2071616766        2.8955287219       -0.0131195316
 H          0.8236933660        4.4701549564       -1.1089145250
 H         -1.4309629101        4.9674629625       -1.9777987579
 H         -3.2886419937        3.4005042244       -1.5806257131
 H         -3.9500345571        1.1842342776       -0.9897681081
 C         -4.0009387170        1.3167804533        1.1342792570
 C         -3.4364252923        2.1025700706        2.2753453315
 C         -4.5369818629        2.6838097718        1.4427221535
 H         -5.5237669791        2.7627851559        1.8728752238
 H         -4.2806204540        3.4865167478        0.7684742843
 H         -3.6564592909        1.7604530836        3.2747787560
 H         -2.4413913653        2.5064495479        2.1666730328
 H         -4.6327207582        0.4752783700        1.3969529689
