  62
        -98.93791413
 C          2.2189838407        0.8813238007       -0.0477600197
 C          3.2387120407        0.7768899703        0.9311193503
 C          4.1685819706       -0.3521107897        0.7877342700
 C          3.9833371106       -1.2273069694       -0.2171974503
 C          4.8850732805       -2.3840539593       -0.5425767806
 C          6.1501440106       -1.8784624592       -1.2655463204
 C          7.4470149706       -2.0748508595       -0.4799684405
 H          7.7360280605       -3.1267517195       -0.5299268808
 H          8.2241715706       -1.4954355694       -0.9829064203
 C          7.4011291205       -1.6714364200        0.9969459997
 H          8.4353893005       -1.6155814501        1.3430216297
 H          6.9210623305       -2.4601726701        1.5780630494
 C          6.7053636606       -0.3399798700        1.3077087101
 H          6.7208271007        0.3147595403        0.4362193403
 H          7.2716748506        0.1634608597        2.0938198202
 C          5.2582296306       -0.4767906101        1.8167451800
 H          5.1472056105       -1.4235827102        2.3525180197
 H          5.0612640106        0.3288122197        2.5301270902
 H          6.0154096206       -0.8181042091       -1.4891314001
 H          6.2501850506       -2.3905586389       -2.2237673806
 H          4.3238526105       -3.0618238791       -1.1862607208
 H          5.1506152205       -2.9113676596        0.3710184092
 O          2.9747514106       -1.1119078491       -1.1193118303
 C          2.0692353107       -0.0618280890       -1.0638232699
 O          1.2089206107       -0.0886519487       -1.9655058500
 O          3.3656854107        1.5947824500        1.8810270306
 C          1.2406083908        2.0397710807        0.0632928907
 C         -0.1074551193        1.4865294506        0.4529982805
 C         -0.3555100493        1.1834642502        1.7892671504
 C         -1.5572455394        0.6198294802        2.1733333202
 C         -2.5336797993        0.3368818305        1.2334442601
 C         -2.2874427793        0.6158450609       -0.1034660898
 C         -1.0876280393        1.2032965910       -0.4846531996
 H         -0.9058304792        1.4035051813       -1.5285952796
 N         -3.2662475993        0.3243532213       -1.0682235899
 S         -4.0496311194       -1.1574272387       -0.9990955104
 O         -3.2244795695       -2.1800396189       -0.3984035207
 O         -4.5050383494       -1.4070322283       -2.3496054605
 C         -5.4668518394       -0.8306432890        0.0310042697
 C         -6.2804224393        0.2354707212       -0.2997901200
 C         -7.3930764693        0.4967715510        0.4835899900
 C         -7.6744831994       -0.3095480893        1.5764693898
 C         -6.8503058295       -1.3782410795        1.8934629895
 C         -5.7348776995       -1.6442947193        1.1142709194
 H         -5.0624206995       -2.4605205894        1.3261747792
 H         -7.0703776095       -2.0045720397        2.7430444993
 H         -8.5412031594       -0.1040464094        2.1846453998
 H         -8.0361825993        1.3271162311        0.2402145003
 H         -6.0283954593        0.8356741114       -1.1579316298
 H         -2.9702792393        0.5270245915       -2.0124173099
 H         -3.4687706294       -0.1131518895        1.5240037299
 H         -1.7372327794        0.3949699099        3.2136263901
 H          0.4148155207        1.3850837000        2.5205074105
 H          1.6110487408        2.6507198104        0.8973682709
 C          1.2182240908        2.8896481111       -1.1895549691
 C          0.5940227009        4.2511981611       -1.1389131587
 C          2.0810857309        4.1124474510       -1.2589463487
 H          2.5490072109        4.3585709213       -2.2004272086
 H          2.6883265909        4.3445744207       -0.3964242286
 H          0.0387019509        4.5968828914       -1.9973080386
 H          0.1900499109        4.5763832008       -0.1923079186
 H          1.1081052108        2.3127371713       -2.0998177092
