  62
        -98.94451161
 C         -1.3025953907       -1.7361619689       -0.6984101126
 C         -2.5040902306       -1.6202028694        0.0479057578
 C         -3.4241647001       -0.5532858884       -0.3543051705
 C         -3.1209598799        0.2210115930       -1.4113147194
 C         -3.9355370794        1.3743115541       -1.9292201276
 C         -3.6541530287        2.6892429829       -1.1884560958
 C         -4.2407486485        2.7754602611        0.2213500244
 H         -4.1760054880        3.8206392607        0.5306518360
 H         -5.2977207686        2.5068996417        0.1934727442
 C         -3.5131107088        1.9111026893        1.2610415631
 H         -2.5240401589        1.6407900094        0.8804712426
 H         -3.3482068384        2.4975992379        2.1684185839
 C         -4.2642477793        0.6438571490        1.6731773713
 H         -3.6345244295        0.0879449777        2.3728649304
 H         -5.1853361991        0.9191625187        2.1923746219
 C         -4.6194132799       -0.2928664691        0.5109825500
 H         -5.4337399598        0.1280832821       -0.0781314193
 H         -4.9439994503       -1.2490438496        0.9289780187
 H         -2.5717897587        2.8371170123       -1.1372448357
 H         -4.0753385984        3.5009207640       -1.7867611445
 H         -3.6641587895        1.5043835355       -2.9790949975
 H         -4.9981418596        1.1374022445       -1.8692214778
 O         -2.0022835401        0.0288489136       -2.1525095899
 C         -1.0306712605       -0.8958028875       -1.7787015814
 O         -0.0194778206       -0.8630931469       -2.5041164515
 O         -2.7846308008       -2.3743744707        1.0187770567
 C         -0.2814533711       -2.7182357802       -0.1505366241
 C          0.4315235393       -2.0840384622        1.0213523167
 C          0.7678866291       -2.8133496141        2.1554800356
 C          1.3968534596       -2.1949648159        3.2224497064
 C          1.6869258702       -0.8429529560        3.1880724883
 C          1.3386261204       -0.0999131042        2.0638566395
 C          0.7366522800       -0.7317978423        0.9868895186
 H          0.4593610601       -0.1480357109        0.1254450595
 N          1.5540467211        1.2784389058        2.0233725115
 S          1.5356689713        2.2133370478        0.6450025028
 O          1.8939361320        3.5298280269        1.1296330347
 O          0.2653461812        2.1123665094       -0.0277856971
 C          2.8749897909        1.5923736986       -0.3553334883
 C          4.1548815611        1.8954296074        0.0729537720
 C          5.2379545408        1.4290553679       -0.6515857888
 C          5.0258043302        0.6679878297       -1.7920829599
 C          3.7378782200        0.3763008109       -2.2098377002
 C          2.6468947004        0.8385816104       -1.4874177793
 H          1.6403780102        0.6077312513       -1.8013255095
 H          3.5622070596       -0.2133155177       -3.0952664110
 H          5.8672494000        0.3028052901       -2.3594618306
 H          6.2403723409        1.6594005670       -0.3286007486
 H          4.2748034515        2.5065148461        0.9526799029
 H          2.0850152613        1.6791699044        2.7795996720
 H          2.1570178106       -0.3589068174        4.0300228990
 H          1.6534025494       -2.7703289473        4.0989728655
 H          0.5107668387       -3.8607890840        2.2105226741
 H         -0.8692156015       -3.5626710805        0.2452782347
 C          0.6776141185       -3.2728302891       -1.1912408551
 C          2.0951012287       -2.8102212996       -1.3171809646
 C          1.8023031281       -4.1797131402       -0.7869257466
 H          2.0210390976       -5.0330609394       -1.4106364378
 H          1.9578120182       -4.3496822919        0.2670351332
 H          2.5005915986       -2.7092161383       -2.3114680945
 H          2.4447784891       -2.0558154508       -0.6287480335
 H          0.1682362682       -3.5138764175       -2.1181458454
