  62
        -98.94629833
 C         -2.5766958219       -0.0056707378       -0.4080759900
 C         -2.1689334579       -0.5738650389        0.8231551688
 C         -1.8668288823       -2.0103253503        0.7924613193
 C         -1.9791661584       -2.6934292528       -0.3613659091
 C         -1.7692220306       -4.1729611801       -0.5430665513
 C         -0.3046050350       -4.5848391424       -0.7391199643
 C          0.5574218030       -4.5238258473        0.5217388474
 H          0.0580516234       -5.0584256986        1.3306449027
 H          1.4863899031       -5.0537353255        0.3024420873
 C          0.9009578167       -3.0998941747        0.9786333805
 H          0.7450021084       -2.3957779319        0.1572438815
 H          1.9622789733       -3.0401157436        1.2334307039
 C          0.1256914744       -2.6071019592        2.2005999583
 H          0.4185724598       -1.5682881619        2.3743745165
 H          0.4117880490       -3.1936268769        3.0775093262
 C         -1.4006490890       -2.6614596573        2.0593491728
 H         -1.7446329628       -3.6955749806        2.1035521470
 H         -1.8392691392       -2.1088628191        2.8943515639
 H         -0.3015565186       -5.6128063511       -1.1094387201
 H          0.1376413928       -3.9487229504       -1.5095961367
 H         -2.1866061875       -4.7068379578        0.3114933149
 H         -2.3291375936       -4.4548451085       -1.4375589791
 O         -2.3506271488       -2.1035951101       -1.5294788568
 C         -2.6362901414       -0.7496815858       -1.5848037174
 O         -2.9407048593       -0.3343510434       -2.7233156121
 O         -2.0864277420        0.0786888762        1.8972665375
 C         -2.9190893832        1.4702921878       -0.4882521268
 C         -1.7474248215        2.3128352515       -0.0437441753
 C         -1.8928684531        3.4946495197        0.6726175697
 C         -0.7799707875        4.2266926693        1.0482252266
 C          0.4943901469        3.7914749626        0.7344407867
 C          0.6499288853        2.6166114444        0.0082538076
 C         -0.4674734973        1.9026329464       -0.3911499357
 H         -0.3351717727        0.9918940116       -0.9569275000
 N          1.9305113544        2.1401251924       -0.3441159144
 S          2.2085175830        0.4945128730       -0.0512127823
 O          1.5863165327       -0.2848768125       -1.0921314316
 O          1.8486666889        0.1771845317        1.3110957223
 C          3.9805026911        0.4358433347       -0.2439971610
 C          4.5052484148        0.4890220735       -1.5213293998
 C          5.8816785649        0.4769566618       -1.6809751236
 C          6.7058357339        0.4128204782       -0.5669198859
 C          6.1645654702        0.3576046795        0.7084765947
 C          4.7883993585        0.3708540123        0.8750077794
 H          4.3207919471        0.3231808433        1.8453900996
 H          6.8071880732        0.3044692254        1.5724225300
 H          7.7767631771        0.4033435400       -0.6941789493
 H          6.3057636112        0.5172111594       -2.6712684848
 H          3.8244413156        0.5295625830       -2.3557072362
 H          2.6629387630        2.6855755468        0.0936136155
 H          1.3619933670        4.3527473886        1.0477174570
 H         -0.9066479562        5.1413038255        1.6075126321
 H         -2.8779136409        3.8379871420        0.9438025493
 H         -3.1038316409        1.6811929183       -1.5528399246
 C         -4.1873865250        1.7539290242        0.2921013604
 C         -5.1369248413        2.8213297495       -0.1603638099
 C         -5.5051325716        1.3771561835       -0.3133695237
 H         -6.2689422234        0.9651397822        0.3287066078
 H         -5.4863134832        0.9441790965       -1.3032336520
 H         -5.6539957502        3.4023370820        0.5884238737
 H         -4.8813639541        3.3733228953       -1.0522692515
 H         -4.0612059787        1.5939350718        1.3568879774
