  62
        -98.93359806
 C          2.5081618666        1.3960510211        0.3095736923
 C          2.7925585022        0.5002602109       -0.7468469010
 C          3.8805698908       -0.4775677306       -0.5201040308
 C          4.5259909392       -0.4775674391        0.6601503337
 C          5.6257628474       -1.3932678312        1.1281595652
 C          5.1112418287       -2.7874923354        1.5202257880
 C          4.1048980731       -3.3969842868        0.5479444481
 H          3.7411824602       -4.3295760555        0.9873356056
 H          3.2473605900       -2.7280779785        0.4535880356
 C          4.6547707470       -3.7179718354       -0.8398673098
 H          3.8625738106       -4.2303087347       -1.3920296040
 H          5.4922792702       -4.4122073733       -0.7417050477
 C          5.1128096320       -2.5186767509       -1.6729058219
 H          5.2357877046       -2.8664793166       -2.7029067376
 H          6.0877795406       -2.1641362906       -1.3496693107
 C          4.1211999931       -1.3604385014       -1.7217128063
 H          4.4189688433       -0.6812008558       -2.5299514164
 H          3.1381718799       -1.7437981620       -2.0190847461
 H          5.9686658371       -3.4541677626        1.6260622973
 H          4.6243133987       -2.7056725781        2.4949518943
 H          6.4003107207       -1.4650177203        0.3704597765
 H          6.0665291871       -0.9247138136        2.0108462946
 O          4.2065142773        0.3951293330        1.6581392615
 C          3.2153109992        1.3417172081        1.5143048135
 O          3.0582393921        2.0765470844        2.5097770502
 O          2.1771623538        0.4854856362       -1.8463326534
 C          1.4495764627        2.4843397365        0.2270102263
 C          0.0787605180        1.9570155208        0.5643410149
 C         -0.7227847630        2.5956419097        1.5029001110
 C         -1.9914730609        2.1195682939        1.7853659800
 C         -2.4849650023        0.9997963638        1.1401725954
 C         -1.6914145413        0.3536220555        0.2012817400
 C         -0.4201731138        0.8326716377       -0.0790463226
 H          0.1882048119        0.3368892999       -0.8214710091
 N         -2.1831146685       -0.7891766634       -0.4582871523
 S         -3.6443258627       -0.6235933849       -1.2744145395
 O         -3.6280524112       -1.6415377486       -2.3018010121
 O         -3.8471284246        0.7362699469       -1.7185190024
 C         -4.8646633790       -1.0549147441       -0.0518950468
 C         -5.8813582268       -0.1699318513        0.2491127231
 C         -6.8263287589       -0.5325224951        1.1964810985
 C         -6.7385834691       -1.7671229479        1.8213004599
 C         -5.7122343627       -2.6453613818        1.5059926115
 C         -4.7648830490       -2.2894756049        0.5593807984
 H         -3.9538029045       -2.9426168442        0.2833456557
 H         -5.6472821111       -3.6043540562        1.9943781611
 H         -7.4745104046       -2.0469887016        2.5584715339
 H         -7.6250281253        0.1485127769        1.4428764931
 H         -5.9052401475        0.7811106198       -0.2585386383
 H         -1.4970054385       -1.2180200160       -1.0639277542
 H         -3.4724893465        0.6253611092        1.3552732408
 H         -2.6030498159        2.6253922316        2.5166993054
 H         -0.3411934133        3.4655117054        2.0174274112
 H          1.7269039488        3.2067725073        1.0106853908
 C          1.4804099569        3.2300898874       -1.1024557364
 C          0.3883892475        3.1688430504       -2.1242264769
 C          0.5860882270        4.4150743917       -1.3178223723
 H          0.9914509878        5.2903603953       -1.8022916214
 H         -0.1439619383        4.6303730125       -0.5520193539
 H          0.6785627748        3.1682768675       -3.1641624485
 H         -0.4807608678        2.5617592216       -1.9214725620
 H          2.4902468507        3.3102954369       -1.4927470134
