  62
        -98.94120507
 C          1.4824375573        1.5855504953       -0.2071642559
 C          2.6349343826        1.2569983237        0.5479342314
 C          3.4775410322        0.1535603724        0.0487494112
 C          3.1118328668       -0.4760939402       -1.0829149066
 C          3.7872001521       -1.6391205709       -1.7598192348
 C          3.5295285749       -2.9818031845       -1.0528654106
 C          3.5644774980       -2.9259642515        0.4725356727
 H          2.8562576156       -2.1725148290        0.8225509156
 H          3.2251224174       -3.8946130919        0.8488849021
 C          4.9390746784       -2.6529271582        1.0785864017
 H          4.8298241644       -2.6859262460        2.1656075333
 H          5.6226118454       -3.4547552737        0.7895287125
 C          5.5805719148       -1.3164300927        0.7041113112
 H          5.9578525577       -1.3382377224       -0.3146889217
 H          6.4502203632       -1.1796737709        1.3537519122
 C          4.6875077243       -0.0974968338        0.9152875548
 H          4.3199972278       -0.0988559403        1.9476428571
 H          5.3055570209        0.8048584513        0.8309620734
 H          2.5404287608       -3.3375057396       -1.3508236922
 H          4.2648771450       -3.7050441672       -1.4090957080
 H          3.3789493503       -1.6945940304       -2.7715666188
 H          4.8522584737       -1.4437322777       -1.8469339046
 O          1.9900821063       -0.1296766876       -1.7750311936
 C          1.1496857598        0.8919150651       -1.3694273878
 O          0.1735218171        1.0682774157       -2.1242442689
 O          2.9534068199        1.8612164652        1.6065525341
 C          0.5814372850        2.6918383851        0.3196029332
 C         -0.6742193520        2.0366930929        0.8379595030
 C         -0.7156436059        1.5606901434        2.1454186910
 C         -1.8143959682        0.8606972442        2.6091395160
 C         -2.8829371422        0.5951092424        1.7703429164
 C         -2.8421456767        1.0538381129        0.4605399611
 C         -1.7586123355        1.7934856000        0.0088092637
 H         -1.7391231399        2.1330708460       -1.0143756854
 N         -3.8885355749        0.7196089098       -0.4209660932
 S         -4.2985715728       -0.9052751994       -0.4612286228
 O         -4.7398637574       -1.1630712234       -1.8144499446
 O         -5.2726028994       -1.1728135085        0.5692127455
 C         -2.7980662944       -1.8072757630       -0.1022242687
 C         -2.7934245702       -2.7218367213        0.9319047324
 C         -1.6259804050       -3.4116446075        1.2157034633
 C         -0.4844266504       -3.1734190091        0.4662213345
 C         -0.5067729727       -2.2548506075       -0.5712074388
 C         -1.6718171921       -1.5643670807       -0.8630676076
 H         -1.6915963321       -0.8377848531       -1.6604451901
 H          0.3786517596       -2.0557048619       -1.1541448314
 H          0.4288621491       -3.7020990196        0.6904504019
 H         -1.6075727895       -4.1273831164        2.0216792337
 H         -3.7008122123       -2.8688296648        1.4949714836
 H         -3.7386480482        1.0649831999       -1.3586170019
 H         -3.7390523250        0.0308158721        2.1036016810
 H         -1.8350138033        0.5053598846        3.6279158841
 H          0.1349499991        1.7319634580        2.7897274268
 H          1.1206410614        3.1255770144        1.1717669090
 C          0.3302911006        3.7796347551       -0.7027415019
 C         -0.2587260669        5.0815884799       -0.2511016003
 C          1.1759103304        5.0161038632       -0.6785404708
 H          1.4560136592        5.4664476333       -1.6191067308
 H          1.9395440453        5.0854682823        0.0822090924
 H         -0.9662391103        5.5800081846       -0.8959731170
 H         -0.4696802745        5.1929537593        0.8017346787
 H          0.0398657289        3.4038522867       -1.6758466759
