  62
        -98.94463342
 C         -0.7834218417       -1.3581085175        0.3087762473
 C         -1.1549234247       -0.4726444741       -0.7326761328
 C         -2.2590529161        0.4473566840       -0.4185915347
 C         -2.7655764220        0.4969823402        0.8252405477
 C         -3.8826359106        1.3872492237        1.2975323284
 C         -5.2827627666        0.8266435685        1.0109507532
 C         -5.7129807395        0.8682306106       -0.4561461251
 H         -6.7833830098        0.6544892122       -0.4820407459
 H         -5.5739778260        1.8766113398       -0.8471515322
 C         -4.9883635947       -0.1400233079       -1.3592301341
 H         -4.5152427614       -0.9080980460       -0.7431291366
 H         -5.7163786382       -0.6462423996       -1.9971934552
 C         -3.9324553538        0.4745675186       -2.2788543456
 H         -4.4143395321        1.1437407653       -2.9954126557
 H         -3.4557160657       -0.3323649634       -2.8414759919
 C         -2.8337797437        1.2537752370       -1.5436980405
 H         -2.0270316426        1.4620990903       -2.2511182311
 H         -3.2317708515        2.1994421385       -1.1766525872
 H         -5.3287753824       -0.2024680641        1.3743066510
 H         -5.9956846539        1.4162617622        1.5918630882
 H         -3.7671811864        1.4846974282        2.3787239241
 H         -3.7896175854        2.3744282201        0.8451123365
 O         -2.2887180576       -0.2781644284        1.8340384396
 C         -1.3353871602       -1.2503058198        1.5893051596
 O         -1.0576661229       -1.9522612304        2.5821767954
 O         -0.6232255360       -0.4375675470       -1.8733250473
 C          0.2197772404       -2.4880040098        0.1410923058
 C          1.6334019592       -2.0363770171        0.4149991954
 C          2.4247369716       -2.7286631583        1.3246104026
 C          3.7238847993       -2.3279395564        1.5770863846
 C          4.2480139448       -1.2168098169        0.9431883902
 C          3.4620513488       -0.5133630973        0.0358062595
 C          2.1670988959       -0.9329652151       -0.2365305463
 H          1.5761941312       -0.3940183110       -0.9615846431
 N          3.9720570872        0.6280460543       -0.5948614211
 S          2.9838976155        1.8758830187       -1.0841985100
 O          2.3876506348        1.5768562070       -2.3602198386
 O          3.8563544780        3.0339215280       -1.0686720633
 C          1.7216347774        2.0949224360        0.1601647290
 C          1.9923498515        1.8533528828        1.4922553995
 C          1.0032473410        2.0963521319        2.4319584749
 C         -0.2234250712        2.6014879006        2.0322054852
 C         -0.4723078644        2.8582461465        0.6937341005
 C          0.5039883097        2.5942212428       -0.2527323700
 H          0.3404709961        2.7547477266       -1.3063824118
 H         -1.4205923438        3.2639605241        0.3824148569
 H         -0.9890434075        2.7951733004        2.7668364627
 H          1.1937799805        1.8924070254        3.4734437723
 H          2.9556072478        1.4736070131        1.7910266500
 H          4.8577829167        0.9605697904       -0.2433059962
 H          5.2565053045       -0.8903769512        1.1461460835
 H          4.3297529435       -2.8764239050        2.2818519540
 H          2.0091485394       -3.5790470073        1.8440431739
 H         -0.0419784318       -3.2291609370        0.9095520349
 C          0.1454427585       -3.1653338675       -1.2140921063
 C          0.5738107092       -4.5951701712       -1.3383490086
 C         -0.8773045689       -4.2348832042       -1.4446812034
 H         -1.3572924361       -4.2881508368       -2.4103189840
 H         -1.5276068290       -4.4899979447       -0.6201803387
 H          1.0953018253       -4.8989704396       -2.2329846415
 H          0.9043005159       -5.1006970670       -0.4436450616
 H          0.3643470203       -2.4993418766       -2.0385650265
