  62
        -98.94117732
 C         -1.9124969748       -1.5488886272        0.2071911362
 C         -2.5316881870       -0.6479622916        1.1137009515
 C         -3.4547973698        0.3329980050        0.5333237829
 C         -3.6896833322        0.3220872710       -0.7909517925
 C         -4.6461782987        1.2180793306       -1.5305876962
 C         -4.0676428919        2.5904877487       -1.9009925641
 C         -3.8847360158        3.5556232714       -0.7291700356
 H         -3.6809786891        4.5404898663       -1.1541329418
 H         -4.8189153420        3.6289178306       -0.1716230027
 C         -2.7401638799        3.1814799262        0.2230463966
 H         -2.0828463900        2.4612021877       -0.2703683276
 H         -2.1442582632        4.0720996358        0.4365655703
 C         -3.1935089508        2.6022442478        1.5636778681
 H         -3.7450988391        3.3616818231        2.1219711152
 H         -2.3066410087        2.3346270457        2.1439057288
 C         -4.0720211851        1.3499396002        1.4452686525
 H         -4.1592865722        0.8970768542        2.4357716276
 H         -5.0680688142        1.6200170216        1.0948039169
 H         -3.1097770842        2.4426322991       -2.4056343038
 H         -4.7519822494        3.0487997595       -2.6187427021
 H         -4.9100233217        0.6958283135       -2.4529398816
 H         -5.5513874284        1.3526919776       -0.9374730661
 O         -3.0789090359       -0.5547224789       -1.6290667509
 C         -2.1591174039       -1.4911263643       -1.1651184995
 O         -1.6581324917       -2.1799775930       -2.0738193653
 H          0.4131652788       -1.4970349166       -1.2392487101
 C          1.0124799553       -1.5677510065       -0.3431366692
 C          0.4555396152       -2.1089862933        0.8072078110
 C          1.2424235478       -2.1944630169        1.9497943134
 C          2.5591556432       -1.7670770273        1.9333704664
 C          3.1137575934       -1.2367299241        0.7826798614
 C          2.3292445006       -1.1303467148       -0.3592265467
 N          2.8725716626       -0.5644264847       -1.5243382013
 S          3.7721979034        0.8364497518       -1.3565783564
 O          3.5773158939        1.5679383719       -2.5886471204
 O          5.1371046080        0.4942694670       -1.0413831938
 C          3.0493095016        1.7167535204        0.0186666508
 C          3.8446799858        2.0856258421        1.0845272015
 C          3.2685784816        2.7542168369        2.1527837897
 C          1.9116990494        3.0361092050        2.1390876927
 C          1.1261173199        2.6619885394        1.0595774954
 C          1.6977261313        1.9979946959       -0.0132347747
 H          1.1085177292        1.6967605154       -0.8655487800
 H          0.0694886298        2.8769040809        1.0522887571
 H          1.4593115138        3.5490347907        2.9729969004
 H          3.8770364868        3.0477458615        2.9928106340
 H          4.8934720817        1.8383816885        1.0567866862
 H          2.2168433158       -0.4967976710       -2.2888268198
 H          4.1393625646       -0.9064315419        0.7479681441
 H          3.1603131911       -1.8455037405        2.8259091717
 H          0.8122841605       -2.5900702431        2.8578701953
 C         -0.9763840857       -2.5802530979        0.8134177702
 H         -1.2913558102       -2.6524908516        1.8664912400
 C         -1.1386455629       -3.9643495983        0.1988482999
 C         -0.1231891265       -4.5987539168       -0.6985519605
 C         -0.3099760946       -5.1118168030        0.6959073220
 H         -0.7855914800       -6.0703789934        0.8372692033
 H          0.4652778937       -4.8909843544        1.4139292090
 H          0.7764947658       -4.0482490645       -0.9246140476
 H         -0.4871288926       -5.1872822996       -1.5269463114
 H         -2.1775103110       -4.1802690991       -0.0311434677
 O         -2.3306649701       -0.6751595092        2.3563301361
