  62
        -98.94012928
 C         -2.6342154596       -1.3180979591       -0.0107023298
 C         -2.5585194296       -0.1774970894       -0.8452210402
 C         -3.8240355495        0.5385094306       -1.0635893904
 C         -4.9520057796        0.0744536309       -0.4949647203
 C         -6.2980409595        0.7304245109       -0.5971330205
 C         -6.5262178194        1.7151756314        0.5580431192
 C         -5.3677330694        2.6881600914        0.7775301988
 H         -5.6522724393        3.3543084317        1.5949406886
 H         -4.4892262094        2.1299951414        1.1099160590
 C         -4.9975333293        3.5227047609       -0.4565032115
 H         -5.8190170593        3.5085381207       -1.1736960415
 H         -4.8545061993        4.5602562510       -0.1473751519
 C         -3.7083697494        3.0855468806       -1.1550538714
 H         -2.9008570094        3.0067656408       -0.4219855113
 H         -3.4259897593        3.8660348903       -1.8668660217
 C         -3.7840171395        1.7646608503       -1.9314579009
 H         -2.8709660895        1.6789533600       -2.5280860409
 H         -4.6384988695        1.7857170701       -2.6110206609
 H         -6.6714876595        1.1432645617        1.4773807094
 H         -7.4411956894        2.2757390314        0.3583631490
 H         -6.3718562395        1.2492014206       -1.5508191907
 H         -7.0626475596       -0.0470899790       -0.5558375802
 O         -4.9865649696       -1.0352086888        0.2863660401
 C         -3.8317592597       -1.7494193488        0.5594213704
 O         -3.9978907297       -2.7321090885        1.3099259707
 O         -1.4921210096        0.2207193703       -1.3843208204
 C         -1.3807144497       -2.1198988691        0.2903762705
 C         -0.3383865896       -1.2248350889        0.9161331902
 C         -0.6953612496       -0.4538192785        2.0195745299
 C          0.2222162105        0.3846607617        2.6211288696
 C          1.5195149905        0.4696611314        2.1446809395
 C          1.8873582704       -0.2945387090        1.0466952098
 C          0.9602248304       -1.1383658692        0.4433486501
 H          1.2605037003       -1.7245082395       -0.4112357397
 N          3.2112719104       -0.2617046593        0.5654751498
 S          4.0139372305        1.2101085406        0.3740757092
 O          4.2065461806        1.8084283411        1.6706556490
 O          3.3481782706        2.0332128703       -0.6122013011
 C          5.5742056905        0.6231759403       -0.2555945406
 C          6.4618022005        0.0459670605        0.6326423496
 C          7.6678306104       -0.4395050297        0.1536791098
 C          7.9646574004       -0.3404524902       -1.1977648803
 C          7.0644314504        0.2426302395       -2.0765348705
 C          5.8551442305        0.7287711698       -1.6040357406
 H          5.1278813005        1.1949197696       -2.2495842208
 H          7.2988878904        0.3203550291       -3.1260385805
 H          8.9045346104       -0.7181028204       -1.5683988601
 H          8.3713189804       -0.8924201895        0.8335365599
 H          6.1915964205       -0.0023573291        1.6744005896
 H          3.3042218704       -0.7978259396       -0.2877999100
 H          2.2387597005        1.1283990115        2.6022164593
 H         -0.0719199795        0.9809286220        3.4723364794
 H         -1.7087407796       -0.5169996683        2.3940364699
 H         -1.6734353297       -2.8722625488        1.0372009608
 C         -0.9087894898       -2.8340764495       -0.9590237293
 C         -0.1294938298       -4.1094504196       -0.8495885588
 C         -1.5484953798       -4.1368139096       -1.3303420988
 H         -1.7376099699       -4.3387699100       -2.3739952587
 H         -2.3099618299       -4.5206261294       -0.6670202786
 H          0.6556288001       -4.2993773899       -1.5660198587
 H          0.0761242302       -4.4845461992        0.1414941613
 H         -0.6677208197       -2.1493641099       -1.7644400495
