  62
        -98.94340804
 C         -1.8659425182       -0.2667254930       -0.2233674124
 C         -2.9700392856       -0.4717107676       -1.0838974292
 C         -4.2840611293       -0.5595420309       -0.4335911456
 C         -4.3616991039       -0.4611581036        0.9064695131
 C         -5.6394926691       -0.4849570837        1.6933555147
 C         -6.1988402495        0.9310609310        1.8900557596
 C         -6.2700680309        1.7518428882        0.6024091600
 H         -6.7067696160        2.7197970181        0.8575743508
 H         -5.2557712559        1.9412130657        0.2438207710
 C         -7.0902442072        1.1015800353       -0.5204612655
 H         -7.7362335154        0.3263031090       -0.1068143003
 H         -7.7381843632        1.8597318905       -0.9654092828
 C         -6.2528214750        0.5099456769       -1.6557445789
 H         -5.5385093466        1.2565684045       -2.0118950622
 H         -6.9232288611        0.2763994360       -2.4872324793
 C         -5.4812323846       -0.7717423402       -1.3170934255
 H         -6.1606601060       -1.5049329610       -0.8774543336
 H         -5.0924530418       -1.1823524531       -2.2537610317
 H         -7.1954747790        0.8502746478        2.3278069958
 H         -5.5580372382        1.4608339597        2.5985441340
 H         -6.3677964908       -1.1055273774        1.1747638959
 H         -5.4326544191       -0.9233681943        2.6710660471
 O         -3.2764514199       -0.2812620957        1.7017777327
 C         -2.0029649507       -0.1724065111        1.1618213657
 O         -1.1003916722       -0.0011553058        2.0017727280
 H          2.1933608129        0.0124011986       -0.1892084998
 C          1.7809417868       -0.9686508351       -0.0212765416
 C          0.4424813290       -1.2192104606       -0.2835383378
 C         -0.0465288758       -2.5055238726       -0.0704896955
 C          0.7743218809       -3.5033860926        0.4165871706
 C          2.1090048635       -3.2483820478        0.6777292347
 C          2.6138921070       -1.9751650315        0.4491749126
 N          3.9621266658       -1.6827887938        0.7029810687
 S          4.8242968108       -0.7372722274       -0.3752339429
 O          4.3533369349       -0.9074251022       -1.7297148278
 O          6.2097025697       -1.0847542586       -0.1375444349
 C          4.5594818500        0.9379981991        0.1647220618
 C          4.4611405224        1.9370651125       -0.7831442831
 C          4.3097332817        3.2493942144       -0.3624388065
 C          4.2593588520        3.5376595688        0.9924836774
 C          4.3606562264        2.5224015513        1.9317320095
 C          4.5172444309        1.2092603019        1.5179636655
 H          4.5971234360        0.3970846907        2.2209811524
 H          4.3177936464        2.7501157824        2.9846926823
 H          4.1388900895        4.5588916806        1.3181431073
 H          4.2306559686        4.0396683218       -1.0922596527
 H          4.4927204461        1.6670196532       -1.8266865193
 H          4.5107080372       -2.4639506897        1.0320842185
 H          2.7536999827       -4.0281004313        1.0543031816
 H          0.3747932521       -4.4919761160        0.5867653282
 H         -1.0859656994       -2.7127158610       -0.2858961992
 C         -0.4785401183       -0.1533721657       -0.8248565956
 H         -0.6101998010       -0.3396354742       -1.9021649070
 C          0.0539678127        1.2528036634       -0.6376199152
 C          0.9580673516        1.8706302255       -1.6605210570
 C         -0.4586207601        2.3409644714       -1.5313935697
 H         -0.6426463284        3.3157157765       -1.1055462734
 H         -1.1649663130        2.0583165187       -2.2985175208
 H          1.2223691948        1.2746871482       -2.5214498781
 H          1.7464025915        2.5238790272       -1.3182263886
 H          0.2193937517        1.4965500159        0.4060287415
 O         -2.8605050120       -0.5824273562       -2.3355806476
