  62
        -98.95136174
 C         -2.3389631362       -0.0621786628        0.1134181496
 C         -1.6107560924        0.4967250607       -0.9631877684
 C         -1.4312999777        1.9529848086       -0.9273360427
 C         -1.8682090144        2.6506189225        0.1368116064
 C         -1.7621893505        4.1395083991        0.3262120622
 C         -0.3965631875        4.6020521234        0.8520142126
 C          0.7325328448        4.5958387198       -0.1789534947
 H          0.4054107892        5.1196285105       -1.0783411517
 H          1.5587918496        5.1661981707        0.2502682496
 C          1.2452119812        3.1977739545       -0.5515201276
 H          2.3386028578        3.2058001275       -0.5689824714
 H          0.9520950253        2.4793575965        0.2180817645
 C          0.7783662552        2.6920533117       -1.9156747779
 H          1.1791822822        3.3384676431       -2.7002914261
 H          1.1897246912        1.6913847621       -2.0600195815
 C         -0.7441746703        2.6150783824       -2.0853944496
 H         -1.1526098655        3.6153199102       -2.2329385223
 H         -0.9556220824        2.0172135945       -2.9757565765
 H         -0.1153060012        3.9707849913        1.6988656292
 H         -0.5176510022        5.6231923392        1.2218456515
 H         -1.9833630734        4.6477380535       -0.6131426331
 H         -2.5252919301        4.4133650164        1.0581426191
 O         -2.4985630692        2.0651461872        1.1897346561
 C         -2.7530166806        0.7046276915        1.2015844516
 O         -3.3536884268        0.3010504366        2.2203187157
 H         -0.5340563458       -0.9961040845        1.6964258757
 C         -0.3325153615       -1.8545882163        1.0723475368
 C         -1.3092257702       -2.3102653757        0.1962339038
 C         -1.0308357024       -3.4253349568       -0.5840760638
 C          0.2042163465       -4.0461868589       -0.5020903188
 C          1.1916831657       -3.5562594688        0.3335104743
 C          0.9191324846       -2.4451873184        1.1232592512
 N          1.8968691550       -1.8764471342        1.9669686190
 S          2.3509245351       -0.2981745560        1.6229846710
 O          3.4291278272       -0.0086945082        2.5438472749
 O          1.2048612696        0.5704576732        1.6905557468
 C          3.0008217021       -0.3885378803       -0.0361657252
 C          4.3719634342       -0.3807379684       -0.2094689365
 C          4.8905818991       -0.5307792895       -1.4850678403
 C          4.0331346038       -0.7011020292       -2.5619681299
 C          2.6606670719       -0.7134881940       -2.3708443841
 C          2.1335454953       -0.5545863859       -1.0976126889
 H          1.0671315384       -0.5523493688       -0.9350105846
 H          1.9829728078       -0.8436609528       -3.1997111745
 H          4.4347680670       -0.8241277109       -3.5553342917
 H          5.9581877381       -0.5189138625       -1.6346051964
 H          4.9980830145       -0.2495703026        0.6583062755
 H          2.7276595100       -2.4442383636        2.0670412641
 H          2.1640746525       -4.0233747751        0.3748242866
 H          0.4071871695       -4.9120852029       -1.1133904918
 H         -1.7786004840       -3.8046365830       -1.2609573833
 C         -2.6160355458       -1.5556272922        0.1539486413
 H         -3.1434600708       -1.7385761654        1.1020582756
 C         -3.5150146852       -1.9621086968       -0.9948028938
 C         -4.4374275981       -3.1343525039       -0.8519093848
 C         -4.9915762563       -1.7423051235       -0.8690785641
 H         -5.5404658653       -1.4135969313       -1.7386607657
 H         -5.3520617610       -1.3211541635        0.0585595577
 H         -4.6111424661       -3.7626589213       -1.7124165426
 H         -4.4315802369       -3.6639130792        0.0888780934
 H         -3.0630656159       -1.7782617104       -1.9624268613
 O         -1.1442474101       -0.1829785848       -1.9152956514
