  62
        -98.94483561
 C         -1.9321885250       -0.2178377829        0.0793682202
 C         -2.9771065042       -1.0525046865        0.5442757323
 C         -4.2766183973       -0.4010145737        0.7523300988
 C         -4.3919130226        0.9208105809        0.5284706405
 C         -5.6684066957        1.7011335313        0.6464306387
 C         -6.4130992387        1.7493597891       -0.6951501546
 C         -6.5697466128        0.3834790161       -1.3637697890
 H         -7.1358010899        0.5358509614       -2.2853358073
 H         -5.5832667743        0.0122465604       -1.6510868886
 C         -7.2755078941       -0.6697524737       -0.4981969603
 H         -7.8207585986       -0.1800402172        0.3094095973
 H         -8.0097433749       -1.1933992166       -1.1140297619
 C         -6.3472194494       -1.7344028316        0.0893764099
 H         -5.7325237065       -2.1629792925       -0.7062116009
 H         -6.9667380955       -2.5392006084        0.4939124714
 C         -5.4179460160       -1.2625387477        1.2149116510
 H         -6.0007909151       -0.7514351777        1.9837316271
 H         -4.9611456101       -2.1500673837        1.6623897135
 H         -7.3976123635        2.1901309035       -0.5281532777
 H         -5.8595094961        2.4015907483       -1.3747104403
 H         -6.2985956613        1.2457012802        1.4077671188
 H         -5.4221171627        2.7193625453        0.9521228954
 O         -3.3570369260        1.6965744772        0.1163412525
 C         -2.1058365130        1.1496921406       -0.1333421764
 O         -1.2584113516        1.9723956950       -0.5281856099
 H          1.6574916007        0.6737757162       -0.8809887337
 C          1.5277017547        0.5503347883        0.1803443456
 C          0.4635002610       -0.1777077923        0.6862223703
 C          0.3242929793       -0.2854173927        2.0687214543
 C          1.2196740169        0.3312446876        2.9193737620
 C          2.2797822563        1.0617153385        2.4099066264
 C          2.4292558761        1.1750594451        1.0335377054
 N          3.4820701356        1.9318922052        0.4950379502
 S          4.3925803353        1.3619631661       -0.7836715852
 O          5.5423777290        2.2381643161       -0.8260153974
 O          3.5984029713        1.2919454732       -1.9827098450
 C          4.8969875508       -0.2702922049       -0.2719679295
 C          6.0169731402       -0.3892225189        0.5282017168
 C          6.3833130753       -1.6434609017        0.9879486798
 C          5.6211179603       -2.7514434741        0.6493318484
 C          4.4995056152       -2.6149723132       -0.1537405324
 C          4.1299641965       -1.3632760397       -0.6209050498
 H          3.2672304335       -1.2203216018       -1.2500157021
 H          3.9088184203       -3.4774627715       -0.4183764509
 H          5.9036857640       -3.7276660440        1.0105438870
 H          7.2578552766       -1.7532926152        1.6087326941
 H          6.5860491078        0.4967414141        0.7590128033
 H          4.0745407764        2.3701498837        1.1849323825
 H          2.9765619184        1.5526346708        3.0722622753
 H          1.0952245191        0.2429899674        3.9880823578
 H         -0.5077223987       -0.8518230390        2.4643972313
 C         -0.5712112611       -0.8373096919       -0.1898608709
 H         -0.6666440100       -1.8879092289        0.1210868234
 C         -0.2510097323       -0.7964316880       -1.6683892262
 C          0.6742788502       -1.8142335674       -2.2627856456
 C         -0.7939037484       -1.8724236744       -2.5585055143
 H         -1.1350475935       -1.6007154994       -3.5462677669
 H         -1.3784199239       -2.6530093833       -2.0936196489
 H          1.3458732021       -1.5020423647       -3.0491210274
 H          1.0803935935       -2.5637598638       -1.6001254866
 H         -0.2266887283        0.2109384482       -2.0693995798
 O         -2.8286103081       -2.2825588832        0.7750015587
