  62
        -98.93624657
 C          1.4320361692        1.3590686999        0.3018123513
 C          2.1481420200        0.8827905411       -0.8202632887
 C          3.2036149504       -0.1146971885       -0.5510483590
 C          3.4311896900       -0.4927173693        0.7206989508
 C          4.4083559704       -1.5327600792        1.1944032104
 C          3.8798456013       -2.9674441593        0.9891399891
 C          3.0442406019       -3.1788706088       -0.2734993715
 H          2.5619268124       -4.1572722791       -0.1971398624
 H          2.2488586115       -2.4310569292       -0.3057988712
 C          3.8246788225       -3.1475899074       -1.5866543011
 H          4.4804548530       -4.0209397770       -1.6270691815
 H          3.1039272129       -3.2359097671       -2.4039009515
 C          4.6827426519       -1.9062499167       -1.8244144498
 H          5.1058482524       -1.9910136857       -2.8299603496
 H          5.5227074816       -1.8960739868       -1.1348535494
 C          3.9368223212       -0.5731534672       -1.7874722191
 H          3.1863211115       -0.5638245370       -2.5860091594
 H          4.6475530709        0.2230231834       -2.0422960582
 H          3.2461595410       -3.2149296303        1.8437005386
 H          4.7252726816       -3.6565787888        0.9866068989
 H          5.3630477505       -1.3869323983        0.6969250509
 H          4.5603550799       -1.3671141199        2.2627951506
 O          2.7196943493       -0.0016320705        1.7728677408
 C          1.7066968589        0.9236336791        1.5974642211
 O          1.1328310083        1.2710470979        2.6476971011
 O          1.9092071103        1.2541278419       -1.9996464086
 C          0.3128810988        2.3637732194        0.1213938716
 C         -0.7793941306        1.8286967095       -0.7739265693
 C         -1.6058649707        2.6684484696       -1.5126077490
 C         -2.6440589201        2.1542959596       -2.2702188199
 C         -2.8838373293        0.7921463095       -2.3121451210
 C         -2.0593469392       -0.0540113706       -1.5866800713
 C         -1.0276606698        0.4638388494       -0.8188574004
 H         -0.4017311197       -0.2082385207       -0.2437946607
 N         -2.3270526284       -1.4483773007       -1.5911176925
 S         -3.5447808787       -1.8704545822       -0.5157362733
 O         -3.5334645079       -3.3134903522       -0.4402011744
 O         -4.7712586088       -1.2585601825       -0.9562107234
 C         -3.0142314497       -1.1578582131        1.0301414775
 C         -2.1588948997       -1.8827160932        1.8360492373
 C         -1.6333323105       -1.2812730138        2.9679795280
 C         -1.9568500913        0.0338265458        3.2645047788
 C         -2.8177311714        0.7472201059        2.4451614690
 C         -3.3508704106        0.1503916565        1.3140177883
 H         -4.0176699606        0.6743700767        0.6484027784
 H         -3.0631149920        1.7710637656        2.6772627597
 H         -1.5205176620        0.5080864954        4.1289764794
 H         -0.9594390305       -1.8294537339        3.6070101878
 H         -1.9257354490       -2.9011770729        1.5666799566
 H         -1.5092699082       -2.0022170204       -1.3753873625
 H         -3.6974235989        0.3727019595       -2.8807777817
 H         -3.2758812402        2.8230994297       -2.8343272696
 H         -1.4368938613        3.7328501097       -1.4902816181
 H         -0.1224775218        2.5109970584        1.1216735515
 C          0.8712441283        3.6878741301       -0.3649132972
 C          0.2902044273        4.9842609894        0.1119016136
 C          1.6365892174        4.5429457798        0.5986859138
 H          2.5137951172        5.0630550605        0.2442141246
 H          1.7223354171        4.1856058190        1.6148477136
 H          0.2443213772        5.8132558399       -0.5783849358
 H         -0.5341342629        4.9404918084        0.8076343332
 H          1.2367057987        3.6331366211       -1.3838959870
