  62
        -98.94262004
 C          2.1308258362        0.8802679539        0.1676589011
 C          2.6261453572       -0.0141079164        1.1450491437
 C          2.9608677966       -1.3633716963        0.6717762366
 C          2.7380406157       -1.6813845611       -0.6168368247
 C          3.0639691027       -3.0072034517       -1.2399114980
 C          4.4789189951       -3.0106297267       -1.8353510679
 C          5.5511403245       -2.4853458838       -0.8806331519
 H          6.5107756293       -2.5629399546       -1.3959809603
 H          5.3711780421       -1.4243045494       -0.6932740220
 C          5.6280780464       -3.2306717021        0.4591329389
 H          5.1276461574       -4.1959132653        0.3748315412
 H          6.6769232872       -3.4277139877        0.6901462155
 C          5.0476704326       -2.4612937863        1.6471145685
 H          5.4773128064       -1.4569342597        1.6780231755
 H          5.3480218548       -2.9746845362        2.5642805733
 C          3.5194306043       -2.3319651696        1.6764821663
 H          3.0633155131       -3.3169333212        1.5567242189
 H          3.2374488439       -1.9397443689        2.6581775081
 H          4.7234891777       -4.0310369775       -2.1357913368
 H          4.4784575603       -2.3834342391       -2.7297783947
 H          2.9725203265       -3.7880195191       -0.4871784794
 H          2.3406276146       -3.1972002987       -2.0350054105
 O          2.2259194605       -0.8061311931       -1.5198637281
 C          1.9092948800        0.4935562454       -1.1546865633
 O          1.4500160244        1.1909953820       -2.0791547821
 H         -0.2259003553        0.6217977461        1.1976807004
 C         -0.6094944460        1.5041528547        0.6978439557
 C          0.2759406192        2.5027573103        0.3108119083
 C         -0.2371007897        3.6248565449       -0.3256755446
 C         -1.5923139110        3.7235515004       -0.5935686494
 C         -2.4636867036        2.7124895318       -0.2327437314
 C         -1.9624899180        1.5965609835        0.4218294794
 N         -2.8478805747        0.5442275452        0.7750708283
 S         -3.2420832856       -0.4755946811       -0.5194012547
 O         -2.2898916938       -1.5672275481       -0.5799976897
 O         -3.4002343980        0.3186274210       -1.7096464099
 C         -4.8282900758       -1.0917953910        0.0116174042
 C         -5.9339054709       -0.2809177289       -0.1565335576
 C         -7.1677521170       -0.7293837079        0.2860712034
 C         -7.2742540753       -1.9738145230        0.8894617731
 C         -6.1553851986       -2.7762503973        1.0516981577
 C         -4.9180714754       -2.3324484581        0.6113183422
 H         -4.0230414046       -2.9256262709        0.7092232164
 H         -6.2407264651       -3.7441185119        1.5190310620
 H         -8.2355092260       -2.3213532410        1.2336383873
 H         -8.0402895029       -0.1088855695        0.1599868008
 H         -5.8033903242        0.6738613151       -0.6381861956
 H         -2.4434354090       -0.0437524736        1.4936256680
 H         -3.5145334833        2.7651043056       -0.4639130462
 H         -1.9718784824        4.5972465174       -1.1012227804
 H          0.4276302016        4.4168489300       -0.6298538734
 C          1.7446579272        2.2887394445        0.5839692737
 H          1.9051956096        2.3284840394        1.6719056299
 C          2.6428274547        3.3098049722       -0.0808850356
 C          2.9221796529        4.6211044447        0.5891503640
 C          3.9940141319        3.5773270214        0.5092073294
 H          4.8257702715        3.7384466074       -0.1599770199
 H          4.2557445202        3.0404408417        1.4093865903
 H          3.0212077293        5.5028116427       -0.0256729832
 H          2.4608416087        4.8000542467        1.5484137378
 H          2.5627791498        3.2898816062       -1.1621387074
 O          2.7696843199        0.2986121412        2.3587667656
