  62
        -98.93125662
 C         -2.2530330798       -1.1477398889        0.2426908802
 C         -2.3822570694        0.1580671512        0.7791291202
 C         -3.5542712391        0.9489485616        0.3613290501
 C         -4.4169284992        0.4140117818       -0.5209514300
 C         -5.6800965990        1.0054596122       -1.0942658301
 C         -5.6222115485        2.4785301022       -1.5262004901
 C         -6.4156270882        3.4130659325       -0.6111614602
 H         -6.6923593279        4.3048291126       -1.1778167303
 H         -7.3408628084        2.9114623528       -0.3203392903
 C         -5.6768789582        3.8752131723        0.6435230898
 H         -4.8934409679        4.5824395620        0.3625890899
 H         -6.3923300881        4.4142308925        1.2690016798
 C         -5.0420702386        2.7596546821        1.4761652999
 H         -5.7070628289        1.8984912723        1.5316098499
 H         -4.9174179486        3.1322321821        2.4951412799
 C         -3.6598838387        2.3216071716        0.9676615600
 H         -3.2730612984        3.0542612415        0.2531282901
 H         -2.9472786088        2.3119181814        1.7985847901
 H         -4.5853685783        2.8041897819       -1.5947171600
 H         -6.0490601483        2.5475113223       -2.5280752202
 H         -5.9201892491        0.3758899623       -1.9540308201
 H         -6.4863151591        0.8631685925       -0.3702150302
 O         -4.2495743996       -0.8419557782       -1.0196226799
 C         -3.1883272999       -1.6550364786       -0.6586311098
 O         -3.2150893602       -2.7729903786       -1.2082718798
 O         -1.5533636793        0.6450503209        1.5971219503
 C         -1.0548577201       -1.9628715692        0.6989931804
 C          0.0494748800       -1.9502786696       -0.3316895695
 C         -0.0947441701       -2.5808571696       -1.5634200195
 C          0.9362867400       -2.5561772500       -2.4842817095
 C          2.1248234302       -1.9085773203       -2.1978782794
 C          2.2821561603       -1.2807196804       -0.9674545794
 C          1.2448527302       -1.3055414000       -0.0453839095
 H          1.3695326803       -0.7975941900        0.8993388005
 N          3.5019528004       -0.6631526007       -0.6402319693
 S          3.5130074008        0.7224812393        0.3228153007
 O          3.2785117406        0.3405391094        1.6921993007
 O          2.6322359512        1.7256494795       -0.2336454994
 C          5.2170085810        1.2108288587        0.1265200608
 C          5.5400026814        2.2675536886       -0.7029175692
 C          6.8734944815        2.6125288281       -0.8608042091
 C          7.8555568512        1.8967505778       -0.1930802490
 C          7.5157509208        0.8385555980        0.6370803510
 C          6.1848267407        0.4899383484        0.8008705409
 H          5.8723048704       -0.3176534415        1.4419215909
 H          8.2818219006        0.2859898777        1.1566587411
 H          8.8921982513        2.1668404975       -0.3181897489
 H          7.1402561519        3.4366946880       -1.5026058391
 H          4.7420059316        2.7987463988       -1.1965342293
 H          4.1006880806       -0.5428903310       -1.4465454892
 H          2.9274736402       -1.8916178606       -2.9196017993
 H          0.8109197999       -3.0438938299       -3.4392832795
 H         -1.0270891902       -3.0704113393       -1.7975030796
 H         -0.6773089800       -1.4395908093        1.5886474304
 C         -1.4087356406       -3.3837593591        1.0940829904
 C         -0.4701777109       -4.1390335094        1.9846248305
 C         -1.7944838508       -3.6756649590        2.5115211903
 H         -2.5648345111       -4.4096472287        2.6942340503
 H         -1.8057455806       -2.8482275289        3.2063856003
 H         -0.3278438312       -5.1936806094        1.8065179705
 H          0.4174010892       -3.6246037297        2.3222181505
 H         -1.9213460907       -3.9336767990        0.3161136303
