  62
        -98.93463126
 C          1.8958691702        1.5724333197        0.4544729404
 C          1.9042715498        0.4309591095        1.2940892801
 C          2.9867139597       -0.5441152806        1.0839401502
 C          3.8871230100       -0.3133130005        0.1128196904
 C          5.0391600600       -1.1890651405       -0.2962242495
 C          4.6328594901       -2.1252661602       -1.4469474598
 C          4.0046423898       -3.4473834702       -1.0085005803
 H          3.6506228600       -3.9526969699       -1.9099144605
 H          4.7745074696       -4.0792373304       -0.5604957903
 C          2.8386169096       -3.3207512003       -0.0246105606
 H          2.1883009498       -2.5002989501       -0.3331976405
 H          2.2557099695       -4.2421533502       -0.0789229210
 C          3.2921484193       -3.1122489007        1.4280769996
 H          2.7928318690       -3.8401538108        2.0713488993
 H          4.3595386192       -3.3197722009        1.5012864698
 C          2.9973595693       -1.7244253408        2.0168349399
 H          3.7091525491       -1.5226794611        2.8246095701
 H          2.0033353092       -1.7231203508        2.4755601896
 H          3.9373166404       -1.5816544799       -2.0913749599
 H          5.5194107702       -2.3529386202       -2.0423212097
 H          5.4169567197       -1.7505926808        0.5531963405
 H          5.8255562702       -0.5206001506       -0.6530803091
 O          3.8254669204        0.7795565897       -0.6934277793
 C          2.8312722005        1.7399307099       -0.5668741693
 O          2.9110757408        2.6560029501       -1.4041182290
 O          1.0381586596        0.2390358494        2.1902743199
 C          0.7733392303        2.5683324098        0.6911950104
 C         -0.4467710296        2.0891753902       -0.0516184100
 C         -0.4195855893        1.8925676805       -1.4294815101
 C         -1.5291169992        1.3938732609       -2.0871781705
 C         -2.6746912894        1.0573314809       -1.3856320508
 C         -2.7005596597        1.2263327705       -0.0079643408
 C         -1.5953598698        1.7536521402        0.6475340096
 H         -1.6170608201        1.8728139399        1.7220203196
 N         -3.8386991800        0.8334634905        0.7166354988
 S         -4.4857686401       -0.6681991493        0.3520372083
 O         -5.3809200398       -0.5435583389       -0.7716910019
 O         -5.0881706305       -1.1318769495        1.5822708680
 C         -3.0997012701       -1.6990595194       -0.1018778717
 C         -3.1338321799       -2.3840926091       -1.2996210418
 C         -2.0518384900       -3.1741803992       -1.6526010018
 C         -0.9553220002       -3.2588759495       -0.8090012015
 C         -0.9362561404       -2.5661330698        0.3916309387
 C         -2.0184315004       -1.7810169598        0.7532752986
 H         -2.0151722905       -1.2336361400        1.6822267387
 H         -0.0797234006       -2.6188964101        1.0447947889
 H         -0.1083918502       -3.8658340896       -1.0875758815
 H         -2.0641576698       -3.7157050489       -2.5847645219
 H         -4.0015335398       -2.2801867288       -1.9307995020
 H         -3.7473324502        0.9532490402        1.7151758989
 H         -3.5436675994        0.6575322611       -1.8829870212
 H         -1.4999943890        1.2544449111       -3.1571230005
 H          0.4848326109        2.1267427406       -1.9717597798
 H          0.5522704800        2.4906393396        1.7677071203
 C          1.1490106206        4.0145925398        0.4119379709
 C          0.5225822709        4.8455912502       -0.6636984191
 C          0.1865436406        5.1084816499        0.7714830209
 H          0.5670557806        6.0024396997        1.2418112312
 H         -0.7938288995        4.8118333300        1.1142108806
 H          1.1585838812        5.5434294303       -1.1865884187
 H         -0.2345759590        4.3972119405       -1.2871614394
 H          2.1972477505        4.2085148596        0.6119418112
