  62
        -98.94442147
 C         -1.8331211982       -0.0165061371       -0.4217105337
 C         -2.9813285541        0.3555161968       -1.1611059612
 C         -4.2656515846       -0.1351953169       -0.6447815274
 C         -4.2787173278       -0.9061016762        0.4581350383
 C         -5.5188393020       -1.4320140144        1.1200727504
 C         -6.0271928433       -0.4640226970        2.1976146677
 C         -6.1355151112        0.9855871210        1.7244344083
 H         -5.1337479504        1.3667995911        1.5134655617
 H         -6.5327952305        1.5702161700        2.5570412964
 C         -7.0242976213        1.1856234541        0.4888919256
 H         -7.6706348606        2.0492594244        0.6589267709
 H         -7.6717327201        0.3184507137        0.3539761528
 C         -6.2569503683        1.4518579098       -0.8074436153
 H         -5.5384631308        2.2597402322       -0.6480630252
 H         -6.9712972962        1.7929875467       -1.5614040485
 C         -5.5079313964        0.2505141442       -1.3977833996
 H         -5.1747100874        0.5277633740       -2.4021831609
 H         -6.1868024002       -0.6002983859       -1.4838122288
 H         -5.3381637791       -0.4971920030        3.0448637733
 H         -7.0036727190       -0.8112315120        2.5402808745
 H         -6.2879702979       -1.5895718394        0.3664083620
 H         -5.2791920451       -2.3886157260        1.5875195000
 O         -3.1530287745       -1.2604786371        1.1299696009
 C         -1.9032732572       -0.8208456248        0.7154801209
 O         -0.9593765671       -1.2120238443        1.4280518958
 H          2.1278680625        0.0740066690       -0.0446714750
 C          1.7462307015       -0.7363877765       -0.6423280062
 C          0.4504584922       -0.6954543154       -1.1333289999
 C         -0.0055087936       -1.7632071289       -1.9029180655
 C          0.8044915035       -2.8540154597       -2.1479968758
 C          2.0882730588       -2.9031747039       -1.6336730769
 C          2.5601924116       -1.8367833065       -0.8782927039
 N          3.8749567288       -1.8417891127       -0.3977307587
 S          4.3375903182       -1.0292421675        0.9846109832
 O          5.6350650998       -1.5916974517        1.2991398821
 O          3.3492256673       -1.1020935939        2.0340252820
 C          4.5620114798        0.6570378177        0.4575919179
 C          4.2253507213        1.6771474731        1.3249266332
 C          4.4467324770        2.9896806528        0.9369298269
 C          4.9973073547        3.2577833314       -0.3068238069
 C          5.3302844171        2.2217085578       -1.1659807189
 C          5.1166698502        0.9075286349       -0.7820140924
 H          5.3649436465        0.0791542267       -1.4239024010
 H          5.7562636743        2.4341840906       -2.1332070871
 H          5.1651810096        4.2798617135       -0.6074081008
 H          4.1886776315        3.7959273530        1.6054636915
 H          3.7866540200        1.4233499562        2.2773532218
 H          4.3791425827       -2.7071183547       -0.5199870587
 H          2.7195938838       -3.7596154947       -1.8149553348
 H          0.4332282319       -3.6776640975       -2.7392337507
 H         -1.0117326902       -1.7290129151       -2.2981809134
 C         -0.4737644177        0.4707420426       -0.8888834547
 H         -0.6610201814        0.9669273465       -1.8533516505
 C          0.0828856371        1.4929004139        0.0797393724
 C          0.9810903685        2.5856938964       -0.4157151152
 C         -0.4204166038        2.9025560690        0.0091501859
 H         -0.5730405505        3.4419250350        0.9319396924
 H         -1.1502148955        3.1283190320       -0.7546726943
 H          1.2064881642        2.6040531758       -1.4710764633
 H          1.7959654329        2.9086741163        0.2140981314
 H          0.2722891211        1.0755493621        1.0634611937
 O         -2.9325495544        1.0585180570       -2.2061510945
