  62
        -98.93953641
 C         -2.3218474422       -1.2095618022        0.4702189050
 C         -2.5900093163       -0.5964112674       -0.7786578189
 C         -3.6998573860        0.3706864672       -0.7918335568
 C         -4.3615459190        0.6382002078        0.3478790786
 C         -5.4743853717        1.6359854253        0.4830647503
 C         -4.9354077435        3.0204202812        0.8694675676
 C         -3.7679632073        3.4922923294        0.0023447197
 H         -3.4905510899        4.4913086255        0.3460406467
 H         -2.9067614529        2.8429310619        0.1789325498
 C         -4.0704763356        3.5336864302       -1.5021770302
 H         -5.1491434077        3.5259636955       -1.6624804290
 H         -3.6886339734        4.4721043589       -1.9095427836
 C         -3.4297211911        2.4035858709       -2.3102586582
 H         -3.5238214249        2.6497399674       -3.3711406413
 H         -2.3621107277        2.3476235483       -2.0816477104
 C         -4.0386925601        1.0102354300       -2.1090648999
 H         -5.1207510059        1.0578989659       -2.2468294622
 H         -3.6211981443        0.3532450994       -2.8775561652
 H         -5.7532579998        3.7401745599        0.8042177661
 H         -4.5975336433        2.9834656061        1.9079577205
 H         -6.0178456166        1.6955696505       -0.4578198271
 H         -6.1534948331        1.2896639018        1.2640096424
 O         -4.0492371488        0.0595466278        1.5365168614
 C         -3.0177519956       -0.8607136590        1.6299277762
 O         -2.8147029377       -1.2850602248        2.7857677111
 O         -1.9469779722       -0.8346181766       -1.8323362766
 C         -1.2045643506       -2.2255967902        0.6315523600
 C          0.0440294189       -1.7417665528       -0.0651990905
 C          0.7382277905       -2.4802379836       -1.0139962305
 C          1.8926637855       -1.9776887617       -1.5894118518
 C          2.3824932200       -0.7356553219       -1.2301562419
 C          1.6957114043        0.0112360986       -0.2822841257
 C          0.5436738667       -0.4948158419        0.2939235599
 H          0.0146511667        0.0908282503        1.0382987834
 N          2.2132750431        1.2768098315        0.1003682407
 S          3.4611460841        1.1598215636        1.2307873167
 O          3.1853648477        0.1273099528        2.2069705383
 O          3.6386943601        2.4968384569        1.7539612128
 C          4.8701844800        0.7022836930        0.2480769294
 C          5.4436649174        1.6588160513       -0.5668767249
 C          6.5313827937        1.3043246055       -1.3489474049
 C          7.0221242703        0.0076650214       -1.3033420491
 C          6.4354696542       -0.9398980918       -0.4781437256
 C          5.3477027348       -0.5921224088        0.3072969103
 H          4.8573872516       -1.2939455277        0.9624820588
 H          6.8184229055       -1.9470835361       -0.4441586743
 H          7.8679675443       -0.2660819084       -1.9140875139
 H          6.9913831698        2.0381830415       -1.9909449702
 H          5.0322804351        2.6545524466       -0.5656333473
 H          1.5019198751        1.8822061117        0.4881419044
 H          3.2726057112       -0.3329414451       -1.6851340312
 H          2.4148523627       -2.5603562756       -2.3325807937
 H          0.3634374333       -3.4429404427       -1.3200151689
 H         -0.9890326637       -2.2395856333        1.7138893911
 C         -1.5964715672       -3.6464530641        0.2524233407
 C         -3.0241134224       -4.0989367854        0.3159589071
 C         -2.3398942505       -3.9625220272       -1.0092883552
 H         -2.0802079852       -4.8641539881       -1.5444259297
 H         -2.6106234403       -3.1368886018       -1.6476283301
 H         -3.2295046618       -5.0896092413        0.6929995730
 H         -3.7710881530       -3.3667548966        0.5872195514
 H         -0.8535620546       -4.3688939811        0.5763741926
