  62
        -98.92521878
 C         -2.4391993500       -1.2967816937       -0.1109052470
 C         -2.3683828810        0.0435304195       -0.5585859202
 C         -3.6532216088        0.7664868155       -0.6708697329
 C         -4.8019929053        0.1406918192       -0.3581437513
 C         -6.2433719514        0.6023623818       -0.4208497270
 C         -6.5843338629        2.0804611608       -0.5904781750
 C         -6.2200266424        2.9617201156        0.6039371757
 H         -6.8831900684        2.7104040220        1.4354704006
 H         -6.4084737450        4.0022256780        0.3308410971
 C         -4.7841604174        2.8320464418        1.1062328945
 H         -4.6123043314        1.8172497169        1.4708348518
 H         -4.6667659840        3.5044096806        1.9604420697
 C         -3.7004202368        3.1821620932        0.0884603652
 H         -2.7435619741        3.1962768436        0.6176093267
 H         -3.8781450828        4.1834466773       -0.3088385311
 C         -3.5589612130        2.2051436980       -1.0913036396
 H         -2.5596754533        2.3338072744       -1.5177347977
 H         -4.2789524043        2.4242756657       -1.8761597781
 H         -7.6683700643        2.1358705594       -0.7222225125
 H         -6.1369447425        2.4676836649       -1.5010812873
 H         -6.7145725799        0.2289003121        0.4938498623
 H         -6.6958303576        0.0456187984       -1.2488994770
 O         -4.8182209642       -1.1595879522        0.0607571857
 C         -3.6597595171       -1.8968837613        0.2021324816
 O         -3.8435981706       -3.0619518429        0.6112649185
 O         -1.2992148204        0.6306922133       -0.8614343840
 C         -1.2028670487       -2.1738352674        0.0583165967
 C         -0.1914572640       -1.4820625242        0.9365108800
 C         -0.3868687414       -1.5836246740        2.3150338378
 C          0.4647880742       -0.9659486880        3.2092640578
 C          1.5559503819       -0.2476178854        2.7527528484
 C          1.7554952067       -0.1279825411        1.3842752476
 C          0.8803618638       -0.7284085435        0.4875850296
 H          1.0572194645       -0.5654142469       -0.5594086356
 N          2.8397354641        0.6043452539        0.8744266358
 S          3.6125212279       -0.0085903950       -0.4966977038
 O          3.0004317819        0.5445523039       -1.6775419344
 O          3.6704315443       -1.4509302778       -0.4176097327
 C          5.2439738841        0.6833638955       -0.2899459590
 C          6.2244195059       -0.0711737798        0.3264373630
 C          7.4801445348        0.4849049669        0.5137051132
 C          7.7321850813        1.7800374565        0.0865598004
 C          6.7386039128        2.5247164797       -0.5317471694
 C          5.4811525289        1.9743631429       -0.7229383558
 H          4.6805838938        2.5105066805       -1.2057475159
 H          6.9389201445        3.5299939674       -0.8658060681
 H          8.7099888398        2.2107969978        0.2335025503
 H          8.2556237769       -0.0927982662        0.9903181811
 H          5.9853450079       -1.0767692890        0.6333328088
 H          3.4984890046        0.8871838701        1.5867703331
 H          2.2353699823        0.2241838965        3.4464623888
 H          0.2876120132       -1.0570528173        4.2703823509
 H         -1.2311108885       -2.1546465052        2.6780449388
 H         -1.5647367165       -3.0398353607        0.6359548588
 C         -0.7797855563       -2.7552907110       -1.2853057538
 C         -0.1619349235       -2.0003989294       -2.4221981441
 C          0.6291226202       -3.0521587958       -1.7022566037
 H          0.8157371451       -3.9842807962       -2.2159052741
 H          1.4438370626       -2.7374644815       -1.0680241395
 H         -0.5183880943       -2.2206498259       -3.4192377520
 H          0.0870714640       -0.9604046679       -2.2841462634
 H         -1.5179016225       -3.4951612812       -1.5903949837
