  62
        -98.94605719
 C         -1.5189988991       -1.1036665165        0.2055614170
 C         -2.5448158685       -0.6264725256        1.0584777808
 C         -3.0833068191        0.7031352075        0.7475776146
 C         -2.5419146182        1.4103769995       -0.2607311084
 C         -3.0192550431        2.7587860113       -0.7148739412
 C         -4.0841761658        2.6328509848       -1.8136955301
 C         -5.2061469191        1.6507169463       -1.4764714372
 H         -5.9124143385        1.6652335456       -2.3092342915
 H         -4.7916396774        0.6414093585       -1.4235282419
 C         -5.9496897602        1.9607756172       -0.1698512008
 H         -5.7616185887        2.9931010392        0.1272275865
 H         -7.0230242449        1.8636546567       -0.3456541856
 C         -5.6032183743        1.0294170724        0.9932960285
 H         -6.3316383345        1.1958430628        1.7912977650
 H         -5.7020574295       -0.0107032776        0.6722912108
 C         -4.2079119157        1.2142467763        1.6035924740
 H         -4.1681415177        0.6305209773        2.5282788388
 H         -4.0512132393        2.2651824206        1.8567720071
 H         -4.5070560275        3.6219814175       -1.9983755387
 H         -3.5963956971        2.2945579487       -2.7307227102
 H         -3.4231795001        3.2998868788        0.1388603281
 H         -2.1623215256        3.3098316631       -1.1065706448
 O         -1.5181144391        0.9485035120       -1.0186808845
 C         -0.9736700896       -0.3081834982       -0.8025443335
 O         -0.0336261812       -0.5878416373       -1.5708703516
 O         -2.9866379191       -1.2845939035        2.0398780518
 C         -0.9317688154       -2.4719328157        0.5029107889
 C          0.5745324278       -2.3928550667        0.5122567358
 C          1.4042450256       -3.2612706994       -0.1849202832
 C          2.7799858087       -3.1117776645       -0.1346022123
 C          3.3548166947       -2.0818858073        0.5862640739
 C          2.5319485729       -1.2064326531        1.2853770312
 C          1.1600262912       -1.3844712447        1.2692790501
 H          0.5364504849       -0.6927620133        1.8181628308
 N          3.0568520167       -0.1068006886        2.0018878917
 S          2.7213022513        1.4012446307        1.3444908211
 O          3.3839297551        2.3506129706        2.2143160912
 O          1.2987220453        1.5626134970        1.1905876401
 C          3.5529330633        1.3715226034       -0.2339873837
 C          2.9604922079        0.7303012871       -1.3033691984
 C          3.6661311808        0.6382546789       -2.4943704231
 C          4.9379813799        1.1798600846       -2.5948568411
 C          5.5171349443        1.8213024601       -1.5098695813
 C          4.8221237101        1.9133983781       -0.3154516569
 H          5.2291176043        2.4032337469        0.5545863787
 H          6.5054175338        2.2446807952       -1.5898052440
 H          5.4795739420        1.1018995593       -3.5243873982
 H          3.2092092460        0.1376618061       -3.3329340305
 H          1.9668143076        0.3191790116       -1.2081292118
 H          4.0530260178       -0.1722218691        2.1661536904
 H          4.4260794574       -1.9477356181        0.6036842676
 H          3.4109710471       -3.7946332576       -0.6825614691
 H          0.9754522796       -4.0459995109       -0.7860033216
 H         -1.2625060727       -2.6894811720        1.5332557356
 C         -1.4776833808       -3.5907568756       -0.3726991048
 C         -2.8002114967       -3.4569770722       -1.0650806780
 C         -1.5345743572       -3.4748713218       -1.8656073620
 H         -1.3172602202       -4.3519134496       -2.4574425717
 H         -1.1901002677       -2.5519348036       -2.3045761362
 H         -3.4488274317       -4.3194366738       -1.1017153621
 H         -3.3269915926       -2.5191588898       -0.9617018382
 H         -1.2509732039       -4.5721715869        0.0322012560
