  62
        -98.94504775
 C         -1.1275023310       -1.8554459721       -0.6788847420
 C         -0.4424960670       -2.3643887835        0.4542695695
 C          0.9901530967       -2.6571013614        0.2563409172
 C          1.5591468921       -2.4388769178       -0.9414742566
 C          3.0099667444       -2.6484573956       -1.2626754570
 C          3.8331922871       -1.3751644931       -1.0266169095
 C          3.6208216646       -0.7392737439        0.3473007911
 H          4.3020610443        0.1118503006        0.4217038119
 H          2.6081542097       -0.3363101600        0.4143368202
 C          3.8506075693       -1.6843321985        1.5342643524
 H          4.4392517961       -2.5476064134        1.2195673129
 H          4.4286220197       -1.1544156989        2.2943238108
 C          2.5623165761       -2.1594919746        2.2098607148
 H          1.9212836851       -1.2971428304        2.4122860605
 H          2.8262578381       -2.6046895039        3.1735288695
 C          1.7473443461       -3.2027139786        1.4338706028
 H          2.3997998645       -4.0230148939        1.1242121662
 H          0.9907534747       -3.6035851116        2.1152684059
 H          4.8888406780       -1.6237461191       -1.1511817501
 H          3.5638020262       -0.6382421381       -1.7867654867
 H          3.3968441718       -3.4611312844       -0.6507947018
 H          3.0884246802       -2.9290238911       -2.3146163075
 O          0.8667997794       -1.9674140345       -2.0102843771
 C         -0.4770951794       -1.6508749148       -1.8991294026
 O         -0.9825459100       -1.2051478356       -2.9487451743
 H         -1.2358385923        0.0779342389        1.1430538991
 C         -1.8661448648        0.6812958273        0.5072085212
 C         -2.6547050952        0.0760995476       -0.4616993478
 C         -3.4725213834        0.8750264452       -1.2518425619
 C         -3.4941528611        2.2474499609       -1.0777364415
 C         -2.6788661674        2.8496955431       -0.1365178267
 C         -1.8528267117        2.0607156879        0.6562611176
 N         -0.9951404909        2.6435617453        1.6067001529
 S          0.6201444991        2.2017226067        1.6312752661
 O          0.7560916926        0.8350876793        2.0572223257
 O          1.2517332653        3.2006958185        2.4651558198
 C          1.1745931346        2.3914541031       -0.0524173644
 C          0.9477625004        1.3709554107       -0.9532867682
 C          1.3277783134        1.5406534112       -2.2748628225
 C          1.9328390339        2.7235853255       -2.6703670903
 C          2.1594155367        3.7391926103       -1.7530956300
 C          1.7720356314        3.5772715316       -0.4327713693
 H          1.9321139905        4.3381261491        0.3139828255
 H          2.6331289988        4.6560989002       -2.0647988943
 H          2.2282641374        2.8512213928       -3.6998153946
 H          1.1347814932        0.7460677289       -2.9796893856
 H          0.4772724184        0.4589128687       -0.6207580389
 H         -1.0759279336        3.6485618802        1.6712042793
 H         -2.6766526167        3.9222774184       -0.0157443453
 H         -4.1362275828        2.8569069671       -1.6948961920
 H         -4.0794177504        0.4150462652       -2.0174926049
 C         -2.5848998463       -1.4172458427       -0.6687192227
 H         -2.9611932604       -1.6211088031       -1.6847841963
 C         -3.4638667399       -2.1926066778        0.2997286152
 C         -3.9578587132       -1.6249474969        1.5926069921
 C         -4.9105660684       -1.8263399111        0.4547616001
 H         -5.6386425638       -2.6202199368        0.5235856001
 H         -5.2614644779       -0.9460821532       -0.0622514519
 H         -4.0065525584       -2.2882626718        2.4425736937
 H         -3.6700682090       -0.6170692525        1.8497602628
 H         -3.2270405147       -3.2511509018        0.3013690728
 O         -0.9753837971       -2.5842347526        1.5709103819
