  62
        -98.94413954
 C          1.7264584974        1.4419684673        0.2097547361
 C          2.0208907586        0.6838494807       -0.9494618258
 C          2.8966995410       -0.4831945110       -0.7547264166
 C          3.3168202635       -0.8021700449        0.4822932928
 C          4.1715711908       -1.9873806636        0.8237164948
 C          3.3270289705       -3.2285364612        1.1446233994
 C          2.2545453089       -3.5400145489        0.1008954122
 H          1.5038140326       -2.7479571255        0.1068257943
 H          1.7508243978       -4.4568818840        0.4142021020
 C          2.7848663136       -3.7097752507       -1.3288408260
 H          2.3115754742       -4.5861020777       -1.7767760782
 H          3.8593699604       -3.8956755973       -1.3100400707
 C          2.4912791168       -2.5254066903       -2.2514682610
 H          1.4266107731       -2.2799683454       -2.2028654885
 H          2.7042575502       -2.8338180531       -3.2787344138
 C          3.3023757928       -1.2513379003       -1.9820681770
 H          3.1415664689       -0.5738822417       -2.8260147732
 H          4.3653224790       -1.4990319645       -1.9414558464
 H          2.8339524500       -3.0756032880        2.1073035296
 H          3.9989165475       -4.0831230610        1.2418127788
 H          4.8375187989       -2.1971098256       -0.0114172847
 H          4.7721051727       -1.7334310374        1.6989110685
 O          2.9733364455       -0.0831629161        1.5803264967
 C          2.1973229558        1.0587850927        1.4712762655
 O          1.9954933850        1.6406345201        2.5536406638
 H         -0.4851195160        1.2794618628       -1.6300983691
 C         -1.1195248247        1.5819399886       -0.8099533633
 C         -0.5873586871        2.3538442734        0.2122891931
 C         -1.4168093127        2.7260896506        1.2632421752
 C         -2.7438693338        2.3313339606        1.2886697921
 C         -3.2616064730        1.5331044819        0.2840574209
 C         -2.4351117069        1.1494360752       -0.7638110522
 N         -2.9184022749        0.2451825421       -1.7327438050
 S         -3.4718858344       -1.2055296373       -1.0904077145
 O         -3.0784954373       -2.2315901288       -2.0309282281
 O         -4.8884727210       -1.0989353594       -0.8423528017
 C         -2.6201993786       -1.4000009657        0.4704041696
 C         -3.3629131275       -1.5224225596        1.6270185329
 C         -2.7057788432       -1.6113538213        2.8435341497
 C         -1.3217547710       -1.5575736029        2.8840598532
 C         -0.5888371988       -1.4369281592        1.7137507596
 C         -1.2392468036       -1.3664790442        0.4928999993
 H         -0.6862071638       -1.2738834097       -0.4296179058
 H          0.4877757572       -1.3773725850        1.7529893399
 H         -0.8044507148       -1.6029795028        3.8293329026
 H         -3.2726867538       -1.7090215235        3.7551667492
 H         -4.4378741911       -1.5365626391        1.5499047512
 H         -2.2419671111        0.0616652301       -2.4614391778
 H         -4.2816608659        1.1837376098        0.3032963776
 H         -3.3768293042        2.6313592288        2.1093758100
 H         -1.0092947782        3.3101454104        2.0750020423
 C          0.8798103095        2.7088195356        0.2000798532
 H          1.1078576167        3.2246189778        1.1419541631
 C          1.2094211404        3.6420231532       -0.9484154983
 C          0.8652231293        5.0943183939       -0.8229517839
 C          2.2980131404        4.6565535992       -0.7787963329
 H          2.9336801027        4.8756490111       -1.6235608652
 H          2.8112582594        4.6852436467        0.1715720824
 H          0.4080740067        5.4229137679        0.0980758160
 H          0.5136513774        5.6173612298       -1.6989766862
 H          1.1076306169        3.1827244622       -1.9225958957
 O          1.5912755736        0.9434021137       -2.1069589699
