  62
        -98.93881747
 C         -1.3740423638       -1.4818983168        0.6248289707
 C         -2.3560838633       -1.2481567643       -0.3663564575
 C         -3.2612348702       -0.1074755836       -0.1290198402
 C         -3.0515199978        0.7062029367        0.9214398548
 C         -3.8308602026        1.9098949131        1.4063954181
 C         -4.7475445782        2.6811523231        0.4581701167
 C         -4.0533778482        3.3372693750       -0.7336377416
 H         -4.8211843448        3.8215424067       -1.3415062406
 H         -3.3829406317        4.1186943333       -0.3666087098
 C         -3.2390540180        2.4000992487       -1.6233118161
 H         -2.8724220100        2.9836093007       -2.4722337099
 H         -2.3663194805        2.0360806115       -1.0790367059
 C         -3.9987730608        1.1961545793       -2.1775741241
 H         -3.3669620345        0.7366242009       -2.9418524247
 H         -4.9199879305        1.5277741537       -2.6602754053
 C         -4.3437168064        0.1029612182       -1.1482289787
 H         -4.4510524134       -0.8430284645       -1.6861538398
 H         -5.2907897354        0.3065369262       -0.6531390144
 H         -5.2054725962        3.4769327527        1.0523440405
 H         -5.5558082672        2.0438358067        0.1114895071
 H         -4.4331368050        1.5599640313        2.2524725150
 H         -3.0866612096        2.5952807899        1.8228958460
 O         -2.0332184972        0.4907139192        1.8038916671
 C         -1.1909755063       -0.5966295881        1.6900692326
 O         -0.3248705205       -0.6688889666        2.5850820648
 O         -2.5043796121       -1.9491395425       -1.4004791305
 C         -0.3778727334       -2.6314320051        0.5566322410
 C          0.7779940351       -2.1589781740       -0.2901263552
 C          0.7274859145       -2.1427452834       -1.6795260368
 C          1.7731426062       -1.6071522838       -2.4105808634
 C          2.8829622042       -1.0738834884       -1.7773120713
 C          2.9375479710       -1.0820268597       -0.3904802125
 C          1.8939855171       -1.6275342744        0.3418262191
 H          1.9282901435       -1.6080718482        1.4229530103
 N          4.0501769112       -0.5104157965        0.2683200952
 S          4.2442374342        1.1351243231        0.0146198959
 O          4.7454619965        1.3468950028       -1.3193921985
 O          5.0877668486        1.5982274318        1.0930465698
 C          2.6049690109        1.8221028180        0.1657001626
 C          1.8854083072        2.1250740865       -0.9719713573
 C          0.5994484597        2.6218591865       -0.8359388372
 C          0.0581492800        2.7995418122        0.4276989615
 C          0.7893243362        2.4805318237        1.5608442085
 C          2.0754301993        1.9840217663        1.4301747678
 H          2.6750831473        1.7333805367        2.2906925748
 H          0.3580833486        2.6021254779        2.5415444170
 H         -0.9423840360        3.1894032816        0.5318070940
 H          0.0226856822        2.8665597501       -1.7137168417
 H          2.3448066763        1.9758754668       -1.9353374818
 H          4.0444625348       -0.6898772008        1.2631961959
 H          3.6965600751       -0.6352577690       -2.3321556897
 H          1.7215186922       -1.5983422139       -3.4887643901
 H         -0.1496277075       -2.5221995616       -2.1794516587
 H         -0.0055195802       -2.7639974311        1.5815377227
 C         -0.9688466129       -3.9443260870        0.0919013557
 C         -0.1931411788       -5.2039052596        0.3300639761
 C         -1.4421093992       -4.9332890343        1.1126315875
 H         -2.3251361520       -5.5149662162        0.8947445113
 H         -1.3429782514       -4.6666786334        2.1550985548
 H         -0.2157950213       -5.9736693105       -0.4258190819
 H          0.7541715115       -5.1186770264        0.8413515989
 H         -1.5412458178       -3.8695151437       -0.8220176777
