  62
        -98.92661791
 C          2.4719477916       -0.1522920809        0.7289871943
 C          2.0772595751       -0.7505550538       -0.4902723348
 C          1.3269825579       -2.0162022058       -0.3906945781
 C          1.0666069417       -2.5268695270        0.8250227928
 C          0.2490352710       -3.7445968761        1.1693935869
 C         -1.1365503502       -3.7922506467        0.5032058313
 C         -1.2700123019       -4.9184362461       -0.5223513274
 H         -0.7778373841       -5.8091243069       -0.1260043598
 H         -2.3288920074       -5.1561860721       -0.6450280836
 C         -0.7037181995       -4.5978993908       -1.9040177811
 H         -0.7390497048       -5.5153421941       -2.4964966812
 H         -1.3493710078       -3.8656792351       -2.3934078736
 C          0.7280648749       -4.0565263687       -1.9230664342
 H          1.1468980049       -4.2680419356       -2.9094759141
 H          1.3488173456       -4.5779498528       -1.1963004112
 C          0.8199883731       -2.5403423600       -1.7062674978
 H          1.4939981787       -2.1045563913       -2.4512092152
 H         -0.1539171501       -2.0700246898       -1.8797606362
 H         -1.3505426520       -2.8256544685        0.0444371623
 H         -1.8827001538       -3.9481871860        1.2845339899
 H          0.1420513500       -3.7226171354        2.2561457490
 H          0.8161058401       -4.6446648901        0.9234803425
 O          1.5441234564       -1.9593090817        1.9724310934
 C          2.2092804081       -0.7485586650        1.9586046688
 O          2.5195466938       -0.3130216877        3.0888801783
 O          2.3184936949       -0.2430564042       -1.6159853567
 C          3.0748031487        1.2495597587        0.7317185004
 C          2.1568485311        2.1111957250       -0.1082919195
 C          2.4827440973        2.9521545909       -1.1632379496
 C          1.4899665052        3.6121482890       -1.8715034417
 C          0.1540243089        3.4379846412       -1.5702828675
 C         -0.1876505407        2.6160133932       -0.5017697263
 C          0.8087573256        2.0017268182        0.2322517259
 H          0.5229772002        1.3716977655        1.0630061913
 N         -1.5337660461        2.4010266330       -0.1449552855
 S         -1.9650213178        0.8439476630        0.3572404693
 O         -1.6101794651        0.6852983583        1.7463017572
 O         -1.4514180076       -0.1484792333       -0.5587842536
 C         -3.7397097981        0.9535574953        0.2137079765
 C         -4.4212189912        1.7336619596        1.1291721313
 C         -5.7973549472        1.8501130493        1.0171844182
 C         -6.4660785561        1.1873043264       -0.0017534495
 C         -5.7693823631        0.4059011056       -0.9107550038
 C         -4.3919187424        0.2876405897       -0.8059140302
 H         -3.8079619563       -0.3109084324       -1.4865190013
 H         -6.2915717482       -0.1112452794       -1.6994314741
 H         -7.5373193894        1.2790862788       -0.0862386523
 H         -6.3423491288        2.4555160509        1.7232577535
 H         -3.8593010165        2.2209859334        1.9088130305
 H         -2.1737819668        2.7328090276       -0.8549752634
 H         -0.6145043966        3.9232994050       -2.1524709337
 H          1.7688726425        4.2529231666       -2.6945137260
 H          3.5021162003        3.0893066654       -1.4742195418
 H          2.9754661914        1.6031235303        1.7730491001
 C          4.5684115620        1.1462034177        0.4669178042
 C          5.2115200430        1.1390582109       -0.8836679140
 C          5.4672980194        2.2762254182        0.0618864915
 H          6.4386873286        2.3289583985        0.5314771935
 H          5.0328040633        3.2423364909       -0.1339905926
 H          6.0078197660        0.4289794331       -1.0543667415
 H          4.5748931045        1.2790140914       -1.7416575706
 H          4.9932039039        0.4536393247        1.1914916038
