  62
        -98.94571352
 C         -0.9396573994       -1.1604163873       -0.2608432167
 C         -1.9542985588       -1.1895204416        0.7324316178
 C         -2.8528472021       -0.0307028368        0.7868006332
 C         -2.6726085740        0.9770181698       -0.0857091043
 C         -3.5652720039        2.1778689609       -0.2025240407
 C         -4.6971108508        1.9307312213       -1.2103108458
 C         -5.4441708910        0.6147997123       -0.9936633207
 H         -6.2373181802        0.5637852576       -1.7428993554
 H         -4.7644742907       -0.2176727130       -1.1895704237
 C         -6.0522599734        0.4530510171        0.4065239005
 H         -6.1182480107        1.4250301197        0.8966003930
 H         -7.0707504980        0.0723983802        0.3042849220
 C         -5.3008488188       -0.5224278384        1.3142305133
 H         -5.1550074650       -1.4709437317        0.7912268209
 H         -5.9260184412       -0.7242406944        2.1881557710
 C         -3.9377902134       -0.0404192521        1.8267403248
 H         -3.6075530114       -0.7417285466        2.5983004881
 H         -4.0445932784        0.9463790717        2.2809548559
 H         -4.2692179137        1.9184777084       -2.2154333583
 H         -5.4005691146        2.7633024340       -1.1508960080
 H         -3.9823720996        2.4109316504        0.7751208905
 H         -2.9675025457        3.0220244002       -0.5475028537
 O         -1.6786710348        0.9835281257       -1.0065518300
 C         -0.7804680383       -0.0692943900       -1.1155710586
 O          0.0770722750        0.1059239084       -2.0030408615
 O         -2.1061494467       -2.1516860683        1.5317143052
 C         -0.0265929002       -2.3740791981       -0.3253187793
 C          1.2293646699       -2.1327854241        0.4765990174
 C          1.4767974357       -2.8665160605        1.6313844541
 C          2.6152582740       -2.6358773384        2.3823808874
 C          3.5187262373       -1.6607216196        2.0028562706
 C          3.2774643060       -0.9174504922        0.8511713407
 C          2.1434693599       -1.1618140381        0.0895762539
 H          1.9697972156       -0.5823417139       -0.8037023454
 N          4.1755605705        0.0824263967        0.4614346357
 S          3.7341389271        1.3648590672       -0.5024521852
 O          3.6388745034        0.9480602488       -1.8779915667
 O          4.7516981029        2.3619164531       -0.2299250443
 C          2.1691381613        1.9879153969        0.0883874744
 C          1.3758291685        2.6690688327       -0.8114412710
 C          0.1971781944        3.2460817219       -0.3679638450
 C         -0.1737008286        3.1227067280        0.9613931354
 C          0.6299856219        2.4294734179        1.8519308788
 C          1.8188068287        1.8650360833        1.4178692805
 H          2.4572812160        1.3291639959        2.1011664041
 H          0.3349053917        2.3262961445        2.8839405137
 H         -1.0955324134        3.5646328609        1.3058315456
 H         -0.4285358178        3.7789315222       -1.0661128141
 H          1.6855324694        2.7191779579       -1.8428722228
 H          4.8874628069        0.3264863477        1.1330868262
 H          4.4043217032       -1.4704611994        2.5895168255
 H          2.7970077736       -3.2139151946        3.2754603854
 H          0.7598603097       -3.6105094321        1.9453594147
 H         -0.5865622728       -3.1779873659        0.1724312471
 C          0.3016026572       -2.8263947529       -1.7335544429
 C          0.7004450253       -4.2528724896       -1.9601938183
 C         -0.6325684712       -3.7618793104       -2.4380845167
 H         -0.7884497490       -3.6315717407       -3.4984788852
 H         -1.5150427598       -4.0834249046       -1.9039478320
 H          1.4649340340       -4.4621301096       -2.6926407116
 H          0.7198829201       -4.9099164138       -1.1038081240
 H          0.7882848687       -2.0672835482       -2.3320987351
