  62
        -98.93654763
 C         -1.7867957995       -1.0981102293       -0.0430162991
 C         -3.1316684495       -1.2278178691        0.3717045907
 C         -4.0846838894       -0.2393110793       -0.1620824198
 C         -3.6411539393        0.7210476104       -0.9950814301
 C         -4.3780455291        1.8252388001       -1.7243338306
 C         -5.8070527492        2.1992288003       -1.3392459510
 C         -5.9508720794        2.8407377908        0.0405731187
 H         -5.4964943394        3.8342108608        0.0103458484
 H         -7.0154306294        2.9684710309        0.2483556685
 C         -5.3075150096        2.0752731513        1.1940873591
 H         -4.2273571996        2.0243004612        1.0429743393
 H         -5.4778746298        2.6467315716        2.1105092989
 C         -5.8442262497        0.6635278914        1.4212767296
 H         -6.9291780997        0.6965561414        1.5377106394
 H         -5.4187830399        0.2961297517        2.3590661298
 C         -5.4998879395       -0.3601657691        0.3255387200
 H         -6.1990636394       -0.3013487294       -0.5051094601
 H         -5.5897905796       -1.3606788089        0.7586851304
 H         -6.4595560792        1.3357406603       -1.4287648408
 H         -6.1468110691        2.9293348500       -2.0789235613
 H         -3.7417352191        2.7120951902       -1.6425452508
 H         -4.3690201790        1.5377612897       -2.7816314105
 O         -2.3291394192        0.8037148102       -1.3673862299
 C         -1.3739619993       -0.0877684696       -0.9088188494
 O         -0.2227201992        0.1294472002       -1.3320469893
 O         -3.5226352297       -2.1340426888        1.1553378710
 C         -0.7619690896       -2.1007392891        0.4539163215
 C          0.4281502603       -1.3827848789        1.0361267114
 C          0.2192412302       -0.3681111385        1.9674094210
 C          1.2771018301        0.3517144016        2.4873902109
 C          2.5733220402        0.0780089215        2.0846217912
 C          2.7937440703       -0.9450245489        1.1753888916
 C          1.7315440104       -1.6780684591        0.6669833517
 H          1.9338151105       -2.4568990593       -0.0520637979
 N          4.1289434304       -1.1834799391        0.7376960920
 S          4.4651749807       -0.3690615696       -0.7061275483
 O          3.6427570408       -0.8743367600       -1.7850830582
 O          5.8914524307       -0.5099077997       -0.9106103880
 C          4.0594711306        1.3167923605       -0.3229145890
 C          2.7735729807        1.7723680805       -0.5387387994
 C          2.4699138706        3.0806325106       -0.1939375999
 C          3.4440500506        3.9002055908        0.3552795799
 C          4.7300326705        3.4243009208        0.5636040903
 C          5.0427489005        2.1182860907        0.2240910509
 H          6.0269678805        1.7019632507        0.3634725912
 H          5.4852221704        4.0646551910        0.9900427802
 H          3.1977039305        4.9160749709        0.6217436595
 H          1.4676246007        3.4451564706       -0.3545132002
 H          2.0299159007        1.1128914203       -0.9612183193
 H          4.3073396604       -2.1666666691        0.5729554924
 H          3.4092825301        0.6421094216        2.4647236611
 H          1.0922988300        1.1390950119        3.2018001606
 H         -0.7953136598       -0.1409925084        2.2660487307
 H         -1.2625007597       -2.6639030488        1.2556062116
 C         -0.4029462494       -3.0617739495       -0.6610748281
 C          0.0172667705       -4.4656726594       -0.3451897275
 C         -1.3253814894       -4.2044260996       -0.9570831578
 H         -1.4871848392       -4.4824310800       -1.9878191177
 H         -2.2021070795       -4.3045014394       -0.3343306879
 H          0.7781831506       -4.9262774197       -0.9578679372
 H          0.0521851203       -4.7552113190        0.6942673926
 H          0.0645138207       -2.5650839399       -1.5059861882
