  62
        -98.94446085
 C          1.7647278998        0.7427188696        0.0091744141
 C          2.9443065137        1.2470209446        0.6079162426
 C          4.1989731363        0.9234388807       -0.0795271864
 C          4.1697647391        0.2094976317       -1.2196377423
 C          5.3639067740       -0.1873630536       -2.0447696976
 C          6.0615845559       -1.4638478194       -1.5549526817
 C          6.8632824576       -1.3116902929       -0.2615659510
 H          7.4692853105       -2.2133727640       -0.1528290585
 H          7.5483581821       -0.4687880528       -0.3575017307
 C          6.0048466043       -1.1392373397        0.9993641168
 H          6.3829602821       -1.7920086223        1.7894364938
 H          4.9803312311       -1.4546304615        0.7876096981
 C          5.9802265259        0.2831137457        1.5593635300
 H          5.3172124685        0.2980274358        2.4281705536
 H          6.9813363594        0.5617485806        1.8954870785
 C          5.4844377865        1.3434941403        0.5672181935
 H          5.2929212789        2.2668175204        1.1192086619
 H          6.2456347942        1.5380084256       -0.1877615084
 H          5.3088778087       -2.2456619876       -1.4282445490
 H          6.7443708531       -1.7856346740       -2.3447508397
 H          6.0810291112        0.6334203630       -2.0723829345
 H          4.9965337237       -0.3634027273       -3.0580723656
 O          3.0118106322       -0.2335306420       -1.7787509904
 C          1.7855201413       -0.0025441569       -1.1693952374
 O          0.8137209864       -0.4977179004       -1.7712966257
 O          2.9475790332        1.9294380528        1.6671790727
 C          0.4321553264        1.0066535975        0.6860454021
 C         -0.2297185562       -0.2977077038        1.0549410161
 C          0.5056729430       -1.2405305870        1.7700802826
 C         -0.0560869115       -2.4479687099        2.1336345962
 C         -1.3650329976       -2.7418977437        1.7929942664
 C         -2.1127405095       -1.8052214348        1.0908256905
 C         -1.5462606534       -0.5881574820        0.7335535981
 H         -2.1409123407        0.1207074281        0.1829852091
 N         -3.4569244980       -2.0562243227        0.7834360454
 S         -4.1367789215       -1.5377342628       -0.6546776940
 O         -5.3451653922       -2.3282483803       -0.7728160051
 O         -3.2154961312       -1.6241340635       -1.7621011736
 C         -4.5964868531        0.1550923128       -0.3513650969
 C         -5.2237051388        0.4725232847        0.8373684673
 C         -5.6209182371        1.7820541664        1.0547359030
 C         -5.3948818525        2.7446148791        0.0824520367
 C         -4.7674229515        2.4086943960       -1.1076384954
 C         -4.3628136926        1.1012076954       -1.3292286549
 H         -3.8583514178        0.7979539174       -2.2334599826
 H         -4.5905689974        3.1577715031       -1.8634535300
 H         -5.7055646684        3.7633777777        0.2526188978
 H         -6.1064086657        2.0484964890        1.9796184681
 H         -5.3860488509       -0.3026170304        1.5671901167
 H         -3.7873353606       -2.9755925006        1.0383767598
 H         -1.8041780702       -3.6885532029        2.0690674078
 H          0.5291633047       -3.1705951518        2.6824085104
 H          1.5299206297       -1.0123975129        2.0325176722
 H          0.6841842066        1.5348278272        1.6182391430
 C         -0.4352450862        1.9121221683       -0.1615594678
 C         -1.4310401433        2.8196395026        0.4952272839
 C         -0.1905915757        3.3899182767       -0.1221266234
 H         -0.2793091765        3.9505516183       -1.0404382946
 H          0.5932803310        3.7440749803        0.5313285914
 H         -2.3767620276        2.9901979271        0.0039183005
 H         -1.4924983619        2.7916839496        1.5724666568
 H         -0.6903878182        1.4710270472       -1.1193323304
