  62
        -98.94527321
 C         -1.7086547689       -0.5921626233        0.8411303455
 C         -2.0826192558       -0.0500973533       -0.4143456647
 C         -2.2353731489        1.4134111022       -0.4624862663
 C         -1.9630185681        2.1461870650        0.6307428302
 C         -2.0664613922        3.6414000409        0.7178164871
 C         -0.7393215274        4.3310922806        0.3763844987
 C         -0.1026585491        3.8492863604       -0.9273638268
 H          0.7957880804        4.4492051416       -1.0927549906
 H          0.2271751819        2.8132820216       -0.8211591315
 C         -1.0139913219        3.9451675172       -2.1583536860
 H         -0.4321084025        4.3486072836       -2.9898481891
 H         -1.8336808692        4.6396398752       -1.9667383671
 C         -1.5770068208        2.5997552886       -2.6217139364
 H         -0.7653428475        1.8684407263       -2.6709809694
 H         -1.9728601096        2.7242353175       -3.6337142981
 C         -2.7018562441        2.0145146590       -1.7577794393
 H         -3.4642896318        2.7767349929       -1.5785555286
 H         -3.1595042005        1.1953577575       -2.3205687608
 H         -0.0322603134        4.1513975343        1.1897818000
 H         -0.9186783375        5.4065535920        0.3160622203
 H         -2.3471958830        3.9037434462        1.7397742150
 H         -2.8469800020        3.9816271222        0.0397067282
 O         -1.5337583887        1.5977909918        1.7969363727
 C         -1.3847392938        0.2249901173        1.9258741362
 O         -0.9589393646       -0.1369921254        3.0408645353
 O         -2.3047859496       -0.7406445409       -1.4418412054
 C         -1.4902947480       -2.0850978440        1.0358463889
 C         -0.6215506419       -2.5928849780       -0.0880137323
 C         -0.9559163911       -3.6358874389       -0.9397280953
 C         -0.1025463400       -3.9900325691       -1.9712682486
 C          1.0787042745       -3.3042591469       -2.1874240680
 C          1.4233186930       -2.2608630233       -1.3352464668
 C          0.5900347004       -1.9405551151       -0.2788156652
 H          0.8585973453       -1.1334634185        0.3870247786
 N          2.6077990173       -1.5277100800       -1.5088914153
 S          2.5929056903        0.1179761397       -1.1901181904
 O          1.3145405082        0.7178137243       -1.4852849521
 O          3.7238927479        0.6347862577       -1.9334974567
 C          2.9572586332        0.2267216760        0.5487683793
 C          2.1449279516        0.9745144719        1.3770606876
 C          2.4429553749        1.0453556664        2.7282639762
 C          3.5497711721        0.3738931745        3.2239612643
 C          4.3628502935       -0.3658333187        2.3780413088
 C          4.0664832442       -0.4425790031        1.0269061459
 H          4.6710987548       -1.0079294236        0.3376305659
 H          5.2223535689       -0.8858359249        2.7693578039
 H          3.7752732457        0.4270511455        4.2773410133
 H          1.7977793920        1.6078696027        3.3842836055
 H          1.2824385229        1.4712973419        0.9586719958
 H          3.1253567879       -1.7441293375       -2.3484177243
 H          1.7246422717       -3.5634898291       -3.0125913267
 H         -0.3737230871       -4.7987182882       -2.6331641282
 H         -1.8943935824       -4.1512400776       -0.8171854941
 H         -0.9061654364       -2.1618543183        1.9684093473
 C         -2.7562981311       -2.8980916083        1.2542230176
 C         -3.9834851749       -2.2683970125        1.8413921691
 C         -3.9853109589       -2.7264939968        0.4153263070
 H         -4.5579861115       -3.6073737786        0.1634452566
 H         -3.9566620492       -1.9853498957       -0.3668952446
 H         -4.5529036900       -2.8306494420        2.5662244693
 H         -3.9538989266       -1.2059631870        2.0366853886
 H         -2.5326784298       -3.9075992017        1.5857519346
