  62
        -98.94414894
 C         -1.7444944054       -1.2358536076        0.4231144020
 C         -1.8254241660       -0.3067230067       -0.6421091189
 C         -3.1825323556       -0.0037076311       -1.1220389902
 C         -4.2354989689       -0.6313328023       -0.5672432484
 C         -5.6712075152       -0.3817842874       -0.9262473758
 C         -6.2855717500        0.7035830456       -0.0314467476
 C         -5.4338936163        1.9685276022        0.0766276384
 H         -5.9797751309        2.6759680931        0.7046671386
 H         -4.5027895895        1.7303051779        0.5962661342
 C         -5.1049743038        2.6289628897       -1.2695088707
 H         -5.2557800800        3.7065897135       -1.1766713016
 H         -5.7929272459        2.2707016929       -2.0361880498
 C         -3.6652399717        2.4217692406       -1.7445799645
 H         -2.9707445774        2.6928310687       -0.9446057403
 H         -3.4813588650        3.1042133488       -2.5789491957
 C         -3.3156133031        1.0075759007       -2.2255244836
 H         -4.0471907954        0.6792490034       -2.9667514665
 H         -2.3345350362        1.0561868257       -2.7073913466
 H         -7.2709898976        0.9591424416       -0.4250420347
 H         -6.4163518516        0.2923685799        0.9721587342
 H         -5.7330574266       -0.0843686713       -1.9710931758
 H         -6.2265554143       -1.3109418140       -0.7881419722
 O         -4.1135648654       -1.5423164558        0.4316670890
 C         -2.8733609756       -1.8492555180        0.9666244629
 O         -2.9059495792       -2.6701992049        1.9055032241
 H          2.1012624716       -0.5003974239        0.5653868319
 C          1.5148316994        0.0743943976        1.2600419694
 C          0.2371971877       -0.3385780464        1.5999670077
 C         -0.4849554603        0.4193211901        2.5192292150
 C          0.0572422103        1.5616870217        3.0739733277
 C          1.3275221864        1.9804668185        2.7150430776
 C          2.0568017953        1.2336119866        1.8002087944
 N          3.3613253686        1.6088421667        1.4273382302
 S          3.6846265072        1.8232318332       -0.2099808554
 O          4.9169585718        2.5845201812       -0.2292343005
 O          2.5644928589        2.4221614098       -0.8965497473
 C          4.0140730818        0.1901004074       -0.8334077533
 C          3.2080472341       -0.3422280083       -1.8203540571
 C          3.4968416727       -1.6082611596       -2.3057344797
 C          4.5775921144       -2.3138541682       -1.7979417747
 C          5.3767189505       -1.7632003225       -0.8068359376
 C          5.0964052616       -0.4969206399       -0.3194188427
 H          5.6951270313       -0.0287492476        0.4438139646
 H          6.2140909932       -2.3170528088       -0.4141342993
 H          4.7957674990       -3.3000446229       -2.1772484030
 H          2.8727280419       -2.0394711956       -3.0725237881
 H          2.3642909979        0.2324703589       -2.1705325106
 H          3.7221530633        2.3973082926        1.9471470894
 H          1.7489868580        2.8793503943        3.1399200667
 H         -0.5147328451        2.1375584395        3.7862916392
 H         -1.4805792084        0.0960763887        2.7932482452
 C         -0.3957745374       -1.5842223810        1.0279541047
 H         -0.6079180927       -2.2685334134        1.8624014876
 C          0.4752323776       -2.3010737754        0.0182822465
 C          1.5569920190       -3.2265462634        0.4857809741
 C          0.3208424055       -3.7807922766       -0.1547709364
 H          0.3936383535       -4.1928336283       -1.1498072570
 H         -0.4037546418       -4.2805157681        0.4718562718
 H          1.6751413256       -3.3553526566        1.5509431282
 H          2.4823587500       -3.2581720637       -0.0692776528
 H          0.6555020096       -1.7099690673       -0.8719708796
 O         -0.8208452328        0.2397562082       -1.1683143265
