  62
        -98.94439588
 C         -1.9526276180       -0.8830059461        0.0650284107
 C         -2.3972960472        0.4531423745        0.2103085367
 C         -3.8126895429        0.6147174038        0.5690730339
 C         -4.5839831141       -0.4702218815        0.7636369944
 C         -6.0390156074       -0.4659730951        1.1469808543
 C         -6.9955074476       -0.2990727181       -0.0417957583
 C         -7.0378652220        1.1027060459       -0.6515042261
 H         -7.8988514702        1.1343422118       -1.3221802951
 H         -7.2124032783        1.8356823715        0.1367347254
 C         -5.7812120863        1.4873255250       -1.4449367174
 H         -5.2108351383        0.5869046174       -1.6846223572
 H         -6.0744015661        1.9417396444       -2.3940941136
 C         -4.8611637198        2.4796255827       -0.7335060453
 H         -5.3782774857        3.4334454293       -0.6067228275
 H         -3.9874543143        2.6526868734       -1.3672775021
 C         -4.3635328194        2.0069111024        0.6387502316
 H         -3.5533474836        2.6680733353        0.9564821955
 H         -5.1688727918        2.0629620275        1.3708553100
 H         -6.7239015302       -1.0234829527       -0.8130480636
 H         -7.9990697024       -0.5488561022        0.3101135111
 H         -6.2394881486       -1.4312469793        1.6167560856
 H         -6.2237631562        0.3216251903        1.8779491809
 O         -4.1071147862       -1.7383247037        0.6476316146
 C         -2.7927743625       -1.9756845947        0.2798934645
 O         -2.4943805135       -3.1838575745        0.1887036430
 H          1.5044460420        0.7028379052       -0.7204390655
 C          1.3970621090        0.3770023954        0.2997962557
 C          0.4290938718       -0.5488814948        0.6524291769
 C          0.3150636765       -0.9197232530        1.9907415998
 C          1.1378944885       -0.3647245764        2.9503566522
 C          2.1000797676        0.5651456669        2.5950810316
 C          2.2250542686        0.9400624173        1.2633504054
 N          3.1764735608        1.8996846735        0.8840637581
 S          4.1197291520        1.7002744408       -0.4793229286
 O          5.1673581610        2.6871512610       -0.3383909415
 O          3.3153640911        1.7885148125       -1.6703604410
 C          4.8065466257        0.0633326745       -0.3095652250
 C          4.1746880540       -1.0094548783       -0.9047999241
 C          4.6878981448       -2.2816305293       -0.7057290864
 C          5.8159685000       -2.4583222091        0.0802292582
 C          6.4416306703       -1.3692508657        0.6682677172
 C          5.9312394697       -0.0958983644        0.4768568952
 H          6.3928608397        0.7785105985        0.9061836718
 H          7.3219134870       -1.5093407788        1.2746933397
 H          6.2109148338       -3.4504939789        0.2319413760
 H          4.2037015616       -3.1289935194       -1.1645366901
 H          3.3033044066       -0.8342238943       -1.5134727626
 H          3.7247528151        2.2680395615        1.6472731984
 H          2.7383591039        1.0077836567        3.3446640609
 H          1.0324145599       -0.6576645559        3.9840757712
 H         -0.4405809757       -1.6431687205        2.2664100387
 C         -0.5180242442       -1.1687599762       -0.3451969525
 H         -0.4024197323       -2.2611294486       -0.2945500747
 C         -0.2875281971       -0.7220231054       -1.7732176292
 C          0.7332112174       -1.4156582016       -2.6223989732
 C         -0.7275699994       -1.6153146900       -2.8923589842
 H         -1.1584750097       -1.1639084118       -3.7735042078
 H         -1.1729089206       -2.5626328310       -2.6242757594
 H          1.3104351769       -0.8259652238       -3.3195575431
 H          1.2742062990       -2.2376502008       -2.1778781863
 H         -0.4248741845        0.3448583838       -1.9094087177
 O         -1.6584435036        1.4592775782        0.0509673739
