  62
        -98.94947685
 C         -1.0339560350       -1.7336900916        0.1057118637
 C         -1.6777271554       -0.9704515748        1.1081169594
 C         -2.8487712481       -0.1995871521        0.6762370689
 C         -3.2335980261       -0.2389533631       -0.6123773191
 C         -4.4060780364        0.4921321922       -1.2078258464
 C         -4.1055108415        1.9537462934       -1.5679949375
 C         -4.0184574409        2.9126149251       -0.3798196929
 H         -4.0504563779        3.9259291898       -0.7853584952
 H         -4.8963670815        2.7863487189        0.2553808401
 C         -2.7429706170        2.7636155647        0.4609876065
 H         -2.3361130957        3.7544974656        0.6797012502
 H         -1.9824669260        2.2404667855       -0.1251098850
 C         -2.9451596896        2.0535080411        1.7999483156
 H         -3.5927424167        2.6605827738        2.4371666916
 H         -1.9738066880        1.9708646218        2.2936214427
 C         -3.5512394260        0.6482266596        1.6945878159
 H         -3.4406284614        0.1564693508        2.6645894129
 H         -4.6128810221        0.7168728163        1.4574074391
 H         -4.9049007118        2.2983471483       -2.2285747327
 H         -3.1683328942        1.9913885574       -2.1296652861
 H         -5.2541856444        0.4509144960       -0.5231915558
 H         -4.6713721361       -0.0411666794       -2.1233315605
 O         -2.5930100870       -0.9902946344       -1.5465154313
 C         -1.4735848367       -1.7427713632       -1.2186849496
 O         -0.9788698662       -2.3690299528       -2.1755719509
 O         -1.2929153603       -0.9355714993        2.3084528928
 C          0.2034719020       -2.5272462351        0.4721847152
 C          1.4223757940       -2.0517468801       -0.2840872156
 C          2.5372530234       -2.8611056163       -0.4769141036
 C          3.6487276756       -2.3754431761       -1.1428223904
 C          3.6853686420       -1.0758543740       -1.6165237785
 C          2.5767477710       -0.2589506861       -1.4294288772
 C          1.4644154130       -0.7529071094       -0.7666909291
 H          0.6010314144       -0.1171479733       -0.6601529415
 N          2.5556691629        1.0598292565       -1.9017449466
 S          1.6529935888        2.2318022370       -1.1291038498
 O          0.2462417681        2.0371079433       -1.3763660248
 O          2.2111965252        3.4775673736       -1.6109550599
 C          2.0323824126        2.0323930447        0.6018541810
 C          3.3179854019        2.3239088155        1.0160988446
 C          3.6572400277        2.1224907876        2.3436308373
 C          2.7134897572        1.6250744813        3.2304602482
 C          1.4260754523        1.3437826392        2.8018145367
 C          1.0805921502        1.5526705243        1.4763405057
 H          0.0865636842        1.3375625998        1.1178125675
 H          0.6853098512        0.9436097435        3.4763906097
 H          2.9807153448        1.4566508632        4.2617249978
 H          4.6558419401        2.3468164161        2.6822103576
 H          4.0220652967        2.7139563546        0.2992141549
 H          3.4302270321        1.4119806169       -2.2596722680
 H          4.5533617640       -0.7001519890       -2.1357631562
 H          4.5036095266       -3.0173160729       -1.2918177849
 H          2.5301291506       -3.8751896001       -0.1116018450
 H          0.3730424996       -2.3235774589        1.5413411819
 C         -0.0432252201       -4.0139151635        0.2972786537
 C          0.5352631806       -5.0054659160        1.2611148632
 C         -0.9346794550       -4.7170935776        1.2757311209
 H         -1.6169404267       -5.4675208328        0.9056600516
 H         -1.3330352816       -4.1295161987        2.0901255924
 H          0.8639196762       -5.9610041085        0.8808260368
 H          1.1286107272       -4.6247399307        2.0787744758
 H         -0.1241172454       -4.2990173251       -0.7456799951
