  62
        -98.94161275
 C         -2.8036001995       -0.6294294600       -0.1981012695
 C         -2.2532616494        0.2947641598       -1.1196682496
 C         -2.5287176392        1.7143803399       -0.8519880299
 C         -3.2857092791        2.0589255102        0.2042427701
 C         -3.6009839989        3.4663637103        0.6180064998
 C         -2.5726364689        3.9953549803        1.6271697498
 C         -1.1187663489        3.7822507900        1.2038070998
 H         -0.4866694588        4.2335067100        1.9721707397
 H         -0.8916385290        2.7127403300        1.1995160700
 C         -0.7597534588        4.3758160397       -0.1652595303
 H          0.2007499213        4.8880036796       -0.0799091704
 H         -1.5031877487        5.1202323998       -0.4544406004
 C         -0.6118650989        3.3403006695       -1.2816995401
 H         -0.1315070889        3.8278072393       -2.1347648802
 H          0.0523320409        2.5391737795       -0.9440269700
 C         -1.9209952490        2.7200782896       -1.7884994900
 H         -2.6362334889        3.5117074797       -2.0218672002
 H         -1.6972519391        2.1755521994       -2.7104125299
 H         -2.7278597689        3.4854001605        2.5808124198
 H         -2.7547926987        5.0610958903        1.7777312696
 H         -3.6201017288        4.1029733901       -0.2643302103
 H         -4.5883667689        3.4735487005        1.0829112098
 O         -3.8255891993        1.1450711904        1.0503225902
 C         -3.5766207395       -0.2053902497        0.8881394405
 O         -4.1043454196       -0.9278227195        1.7577499506
 H         -0.1295170196       -1.3460046306       -1.1605228293
 C         -0.0517175497       -1.9179312304       -0.2475060792
 C         -1.2022520498       -2.4247897901        0.3401386708
 C         -1.0798007099       -3.1373864600        1.5270015010
 C          0.1602708900       -3.3257974200        2.1134178010
 C          1.3008991901       -2.7949347203        1.5373290809
 C          1.1857442802       -2.0823198305        0.3524752308
 N          2.3424759403       -1.4806983608       -0.2134156093
 S          2.7449804205       -0.0336355407        0.5737331105
 O          2.7894073005       -0.2865777105        1.9916610305
 O          1.8678045007        1.0327190794        0.1391385203
 C          4.3941224706        0.2360800790       -0.0457914596
 C          4.6021265107        1.1286470487       -1.0788676397
 C          5.8872616408        1.2949354585       -1.5716275197
 C          6.9346002506        0.5669353884       -1.0279185496
 C          6.7089814805       -0.3270655814        0.0084982205
 C          5.4270363205       -0.4973421711        0.5054593806
 H          5.2039501504       -1.1742825609        1.3132564207
 H          7.5262266304       -0.8904102714        0.4293146806
 H          7.9333089207        0.6983141682       -1.4134844196
 H          6.0653285909        1.9899811683       -2.3764802598
 H          3.7590820208        1.6783030188       -1.4666414798
 H          2.1742169404       -1.2417175409       -1.1840042893
 H          2.2667847201       -2.9018055404        2.0024064709
 H          0.2365863600       -3.8792274699        3.0371714311
 H         -1.9700756200       -3.5214456097        2.0041221510
 C         -2.5553175098       -2.1311327100       -0.2632154792
 H         -3.3176800898       -2.5879808398        0.3817566109
 C         -2.6912785798       -2.7151337302       -1.6549188991
 C         -2.9287278701       -4.1871341802       -1.8004236389
 C         -4.0269371499       -3.2159921301       -2.1114009990
 H         -4.3077902599       -3.0636552103       -3.1425914291
 H         -4.8524902299       -3.1394268199       -1.4185974591
 H         -2.4538929801       -4.7060414704       -2.6187660188
 H         -3.0108584802       -4.7716809901       -0.8965810888
 H         -2.0665778698       -2.2287074405       -2.3917079892
 O         -1.5635850994       -0.0213989505       -2.1271964996
