  62
        -98.93558686
 C          1.0515484411        1.4430531962       -0.0409775843
 C          1.8555465172        0.8457455042        0.9649404949
 C          2.8428117625       -0.1475091368        0.5189596498
 C          2.9054539535       -0.4628467741       -0.7867003512
 C          3.9103081246       -1.3865625032       -1.4150457081
 C          5.2602292757       -0.6577689509       -1.5743935767
 C          6.3928062491       -1.2302344327       -0.7214686812
 H          6.7481432216       -2.1561082091       -1.1788572004
 H          7.2161126685       -0.5131863044       -0.7493805255
 C          6.0451667812       -1.5337444679        0.7392693581
 H          5.5137498870       -2.4846982072        0.7994387242
 H          6.9910084365       -1.6731322088        1.2670921907
 C          5.2252237634       -0.4641477408        1.4727542230
 H          5.6024997633       -0.3893712639        2.4945959967
 H          5.3671623376        0.5130649552        1.0106475446
 C          3.7184985553       -0.7697907135        1.5706662640
 H          3.3417423651       -0.3746195399        2.5184391238
 H          3.5721930409       -1.8532442071        1.5795778242
 H          5.5707305653       -0.6906682940       -2.6199054165
 H          5.1123607081        0.3951915886       -1.3249373460
 H          4.0284632794       -2.2785045889       -0.8034753271
 H          3.5214283352       -1.6789609720       -2.3909217837
 O          2.0894905386        0.0951826009       -1.7157359979
 C          1.1512330054        1.0631820265       -1.3791684111
 O          0.4942910136        1.4738325907       -2.3548205475
 O          1.7588773239        1.1444493821        2.1840995127
 C          0.0780951973        2.5163414900        0.4182397927
 C         -1.2919620070        1.9361089656        0.6536969103
 C         -1.9418264783        2.0887356504        1.8722813261
 C         -3.1865780425        1.5204326065        2.0853533497
 C         -3.8044095826        0.7826434687        1.0912257853
 C         -3.1600040427        0.6232860648       -0.1281277667
 C         -1.9182398735        1.1996422063       -0.3429355866
 H         -1.4241218516        1.0711212152       -1.2947264488
 N         -3.7558820634       -0.1798251630       -1.1306650996
 S         -3.8200124921       -1.8035033742       -0.7064631903
 O         -3.8970479813       -2.5393709901       -1.9476652251
 O         -4.9094084629       -1.9986988304        0.2158688052
 C         -2.2655535318       -2.0981024530        0.1184061648
 C         -1.1304489994       -2.2501720876       -0.6521943569
 C          0.0957506928       -2.3786151892       -0.0212437916
 C          0.1672439633       -2.3341254274        1.3622964943
 C         -0.9814512524       -2.1811843254        2.1220506934
 C         -2.2118462432       -2.0618903226        1.4970768718
 H         -3.1284954175       -1.9430976802        2.0508743611
 H         -0.9179220473       -2.1446642620        3.1974267881
 H          1.1250803140       -2.4120662770        1.8512638268
 H          0.9920163040       -2.4965912369       -0.6097119334
 H         -1.2204676671       -2.2726709601       -1.7270480100
 H         -3.2820153557       -0.0923148769       -2.0199323951
 H         -4.7622310007        0.3120054887        1.2434583176
 H         -3.6781472160        1.6476133144        3.0375409960
 H         -1.4571703847        2.6431917114        2.6622179810
 H          0.4688103627        2.8425504613        1.3946710822
 C          0.0645680381        3.7358973257       -0.4945084536
 C         -1.1110991863        4.1442093671       -1.3260290832
 C         -0.7410670238        4.9433148329       -0.1149453252
 H         -0.3057158320        5.9218347690       -0.2491889070
 H         -1.3813296005        4.8580703601        0.7501866463
 H         -0.9111457770        4.5548842672       -2.3041354402
 H         -2.0055480677        3.5428541324       -1.2854574668
 H          1.0410762558        3.9231622633       -0.9302201814
