  62
        -98.94166825
 C          2.3957344212        1.2330383148        0.1695389173
 C          3.3130714323        0.5388561970        0.9988639536
 C          4.0745902275       -0.5410891444        0.3622906122
 C          3.8593109216       -0.8336148710       -0.9328792925
 C          4.5676770730       -1.8944497606       -1.7309722568
 C          3.9696869580       -3.2989722198       -1.5703043246
 C          4.2397944695       -3.9713456904       -0.2235031132
 H          3.9564647921       -5.0206026790       -0.3273074764
 H          5.3090273619       -3.9415688396       -0.0117558322
 C          3.4629110972       -3.3656779429        0.9539846160
 H          2.6340860738       -2.7644119059        0.5711082418
 H          3.0234887776       -4.1678938916        1.5515184489
 C          4.3075873937       -2.5077245032        1.8964772879
 H          5.0573345631       -3.1329198197        2.3860290097
 H          3.6516485635       -2.1003765820        2.6701633261
 C          5.0205148324       -1.3330156541        1.2139291827
 H          5.4053917968       -0.6682895504        1.9911395174
 H          5.8566167482       -1.6959181242        0.6167805219
 H          4.3954498487       -3.9262341824       -2.3568974569
 H          2.8914271552       -3.2415498426       -1.7399959524
 H          5.6235264254       -1.9139292556       -1.4594376424
 H          4.4823090219       -1.6027481386       -2.7799673832
 O          2.9512719705       -0.1639940378       -1.6899080726
 C          2.1786566044        0.8641649538       -1.1594968461
 O          1.3643998916        1.3459870608       -1.9678766195
 O          3.4827663929        0.8063430674        2.2184702620
 C          1.5698521476        2.3370312464        0.8064827340
 C          0.1104808452        2.1359425498        0.4825907390
 C         -0.6781794912        3.0774821885       -0.1636239418
 C         -2.0059225736        2.8034568224       -0.4435270064
 C         -2.5751562604        1.5955973669       -0.0856632242
 C         -1.7934107151        0.6432410181        0.5554697138
 C         -0.4673442182        0.9239760864        0.8422828375
 H          0.1435190302        0.1783182030        1.3382859034
 N         -2.3612050199       -0.5883336580        0.9295282123
 S         -3.2212454124       -1.4518657602       -0.2273325359
 O         -3.1370302809       -2.8321654735        0.2004014570
 O         -2.7613125092       -1.1644862729       -1.5658789028
 C         -4.8948988626       -0.8829134261       -0.0138571774
 C         -5.4731831360       -1.0189910938        1.2330612597
 C         -6.7757270270       -0.5839431249        1.4175054931
 C         -7.4745247660       -0.0251326813        0.3576525914
 C         -6.8810669474        0.1010553449       -0.8889925832
 C         -5.5780168969       -0.3320987732       -1.0801719100
 H         -5.0735702488       -0.2504264325       -2.0300893548
 H         -7.4258246433        0.5349911600       -1.7120026781
 H         -8.4880152071        0.3135908475        0.5037215135
 H         -7.2407899869       -0.6812392738        2.3852334835
 H         -4.8966433286       -1.4623401946        2.0275856061
 H         -1.7167432916       -1.1980794312        1.4123140625
 H         -3.6062389709        1.3770661207       -0.3103719763
 H         -2.6058371332        3.5416599968       -0.9535939227
 H         -0.2473155454        4.0150548809       -0.4736160708
 H          1.6981044419        2.1766272804        1.8907110643
 C          2.0687873622        3.7451678356        0.5218303938
 C          3.5140995498        4.0050276728        0.2221445312
 C          2.4817209055        4.1943388940       -0.8465218700
 H          2.2386011288        5.2026432310       -1.1486320812
 H          2.4270219339        3.4739980190       -1.6472740561
 H          3.9782459117        4.8795734342        0.6527068268
 H          4.1722586965        3.1510655691        0.1513777974
 H          1.5704448074        4.4817130590        1.1446706865
