  62
        -98.94967558
 C         -0.9455033697       -1.7476016154       -0.1469358849
 C         -2.0926446447       -1.5060600569        0.6436039312
 C         -3.0204382213       -0.4861521687        0.1370542123
 C         -2.7398332897        0.1409585883       -1.0197859678
 C         -3.5972481784        1.2015861350       -1.6483271046
 C         -3.1949146079        2.6137809783       -1.2011146319
 C         -3.0280154352        2.7677675913        0.3110294960
 H         -2.1732389176        2.1782193408        0.6546182881
 H         -2.7799195471        3.8143028270        0.5052334213
 C         -4.2671797615        2.3784059985        1.1288543784
 H         -5.1503575395        2.3776315934        0.4883499591
 H         -4.4251049252        3.1346067043        1.9007898625
 C         -4.1562854923        1.0306257417        1.8441322277
 H         -3.2105503286        0.9881478982        2.3919417475
 H         -4.9635313224        0.9678649116        2.5791512120
 C         -4.2547978440       -0.2105876396        0.9478801055
 H         -4.3852112814       -1.0808174876        1.5981674943
 H         -5.1328482544       -0.1294194889        0.3032557190
 H         -3.9564548561        3.3131521006       -1.5519954066
 H         -2.2489037809        2.8795340110       -1.6782013397
 H         -3.4882717904        1.1298145547       -2.7319700559
 H         -4.6371496568        1.0138564985       -1.3869101782
 O         -1.6223063016       -0.1115040162       -1.7478792899
 C         -0.6850631384       -1.0430715993       -1.3214996044
 O          0.3071676191       -1.1537825831       -2.0644475178
 H          0.5820124391       -0.3999266720        1.3918684268
 C          1.4899677937       -0.9150136973        1.1138898670
 C          1.4183321499       -2.1685349096        0.5200425929
 C          2.6043856405       -2.8113263135        0.1862245859
 C          3.8241587438       -2.2061167399        0.4332408419
 C          3.8892357420       -0.9511630927        1.0100556491
 C          2.7090134692       -0.3025107922        1.3537715310
 N          2.7289290517        0.9698557468        1.9543208132
 S          1.7074862964        2.1491238672        1.3567111478
 O          2.2687661157        3.3902237865        1.8499953330
 O          0.3452633335        1.8816902702        1.7436820992
 C          1.8764394344        2.0823546343       -0.4164216450
 C          3.1401587718        2.1393511539       -0.9708892860
 C          3.2678514110        2.0874102427       -2.3486662438
 C          2.1374490110        1.9842693889       -3.1451484944
 C          0.8764588885        1.9388565929       -2.5742996119
 C          0.7452798263        1.9870136837       -1.1964119816
 H         -0.2149575820        1.9389217798       -0.7090121851
 H         -0.0040784664        1.8449371599       -3.1893969886
 H          2.2384135137        1.9360571881       -4.2178765787
 H          4.2472397025        2.1231497644       -2.7981391217
 H          4.0008923225        2.2302287270       -0.3284612253
 H          3.6544646009        1.3432208788        2.1096559364
 H          4.8408218869       -0.4785353778        1.1998220887
 H          4.7369063717       -2.7166983218        0.1669254663
 H          2.5731735448       -3.7879709898       -0.2679942716
 C          0.0591730529       -2.7884381206        0.3070142377
 H         -0.3071510763       -3.1415312628        1.2835392573
 C          0.0759266888       -3.9580387068       -0.6566396991
 C          0.3492805518       -5.3466450757       -0.1630961880
 C         -1.0343017579       -4.9622978548       -0.5905332205
 H         -1.4227355531       -5.3644291313       -1.5140919347
 H         -1.7858734232       -4.8181853549        0.1721841501
 H          0.5334122843       -5.4758867408        0.8928092549
 H          0.9102756247       -6.0179425471       -0.7957644870
 H          0.4409357753       -3.6798414196       -1.6388973471
 O         -2.3351785268       -2.1230270387        1.7174120714
