  62
        -98.93595875
 C         -2.4963565266       -1.2030385181        0.3307688794
 C         -2.1216239279       -0.3874380554       -0.7646969638
 C         -2.7408652102        0.9515533819       -0.8318764234
 C         -3.6223374313        1.3272032803        0.1124104873
 C         -4.4462707687        2.5889321380        0.2680944968
 C         -4.1224909990        3.8363933350       -0.5494185913
 C         -2.7936718372        4.5057953156       -0.1957408814
 H         -2.6008811367        5.2952153341       -0.9251094378
 H         -2.8930682456        4.9767632740        0.7856083623
 C         -1.5812850399        3.5791282775       -0.1359677215
 H         -0.7119509505        4.1721189308        0.1629330831
 H         -1.7290206420        2.8278888033        0.6435019197
 C         -1.2228631981        2.8709372092       -1.4408551839
 H         -1.0638779755        3.6109428712       -2.2281699640
 H         -0.2759553080        2.3484548663       -1.2733207329
 C         -2.2489715428        1.8387250319       -1.9378403336
 H         -1.7451820177        1.1853054089       -2.6560814936
 H         -3.0766126837        2.3195887731       -2.4537472087
 H         -4.1665907959        3.6107413912       -1.6107405479
 H         -4.9185430437        4.5576325116       -0.3455895574
 H         -4.4103538844        2.8392650586        1.3332124447
 H         -5.4802783111        2.2952187254        0.0556172047
 O         -3.9592877875        0.5000568030        1.1472381927
 C         -3.3785800246       -0.7457064957        1.3088100068
 O         -3.7228442030       -1.3380773238        2.3521787676
 O         -1.3155435956       -0.7484347333       -1.6587338312
 C         -1.8585246163       -2.5629696631        0.5657225393
 C         -0.3684008765       -2.4425682493        0.3583786263
 C          0.3536553180       -3.1868486887       -0.5639333700
 C          1.7128607018       -2.9773699488       -0.7219169958
 C          2.3782784614       -2.0258839630        0.0292567707
 C          1.6651282409       -1.2773194662        0.9564381898
 C          0.3091450708       -1.4995008232        1.1227920544
 H         -0.2472978334       -0.9060504649        1.8406372085
 N          2.3389941777       -0.2867391690        1.7123144465
 S          2.7443170965        1.0969821410        0.8345334002
 O          2.9861809541        2.1183046165        1.8322632982
 O          1.7489791301        1.4066738859       -0.1652233384
 C          4.2812407211        0.6556871141        0.0559638651
 C          4.3326057867        0.5016334099       -1.3152528484
 C          5.5365308850        0.1450709114       -1.9029116141
 C          6.6592714846       -0.0501873050       -1.1127953129
 C          6.5904928303        0.1108297352        0.2633308341
 C          5.3904852777        0.4676907460        0.8573049566
 H          5.2911259148        0.6091312670        1.9205922712
 H          7.4660844733       -0.0414057725        0.8735203269
 H          7.5939758503       -0.3291438908       -1.5730684851
 H          5.5915582909        0.0191284361       -2.9722838159
 H          3.4308932544        0.6568571686       -1.8862154159
 H          1.8108509715        0.0040492709        2.5244253276
 H          3.4353847685       -1.8568348484       -0.0955729364
 H          2.2603832897       -3.5580584806       -1.4484316184
 H         -0.1537783067       -3.9094193520       -1.1815462913
 H         -2.0341913239       -2.7759577024        1.6338163024
 C         -2.4937427795       -3.7052029274       -0.2116003520
 C         -3.9395285258       -3.6554875246       -0.6041858647
 C         -2.8748397903       -3.5818425208       -1.6549514805
 H         -2.7315649166       -4.4393235151       -2.2961865622
 H         -2.6913130359       -2.6367434528       -2.1402937152
 H         -4.5240879813       -4.5595379060       -0.5223656923
 H         -4.4907445776       -2.7566772827       -0.3674943257
 H         -2.1197027077       -4.6710017853        0.1140983689
