  62
        -98.94026723
 C         -2.0130640784       -0.1056783931       -0.4897344228
 C         -2.8126269095        0.5546987927        0.4762655270
 C         -4.1400195617       -0.0346487906        0.7111026154
 C         -4.5057404465       -1.1577690238        0.0694599935
 C         -5.8098117312       -1.8901197385        0.2336622031
 C         -6.9558257818       -1.3245051946       -0.6163272859
 C         -7.5186848120        0.0157267366       -0.1412441110
 H         -8.4478734801        0.1847515149       -0.6891692311
 H         -7.7732185864       -0.0531660051        0.9168556398
 C         -6.5850871353        1.2122448192       -0.3717848001
 H         -5.8186343623        0.9399787444       -1.1011591912
 H         -7.1542151356        2.0404861877       -0.8000485750
 C         -5.9025480592        1.7364489323        0.8916992893
 H         -6.6550514074        2.1349133443        1.5757551503
 H         -5.2381818070        2.5563680756        0.6074101897
 C         -5.0684452562        0.6884735736        1.6398852512
 H         -4.4577014248        1.2045903431        2.3845806018
 H         -5.7221079549       -0.0175085821        2.1515922661
 H         -7.7643754066       -2.0590834852       -0.6026003390
 H         -6.6111059046       -1.2299908974       -1.6487483278
 H         -6.1005754331       -1.8905355228        1.2846319670
 H         -5.6275090943       -2.9213376927       -0.0767165013
 O         -3.6906534292       -1.7881227173       -0.8185499111
 C         -2.4460202781       -1.2697642393       -1.1306696453
 O         -1.8198892931       -1.9265487291       -1.9882337752
 O         -2.4590891237        1.5742149808        1.1199141548
 C         -0.6290091358        0.3747004577       -0.8945685014
 C          0.4230402923       -0.2183739110        0.0061196041
 C          0.3317312572       -0.1082116489        1.3901701622
 C          1.3099072046       -0.6504683174        2.2035425819
 C          2.4000080866       -1.3047278331        1.6562395610
 C          2.5030740753       -1.4144618720        0.2764473913
 C          1.5174504453       -0.8733625637       -0.5388370827
 H          1.5949832754       -0.9771660492       -1.6128224421
 N          3.6336243518       -2.0468335633       -0.2814827623
 S          5.1082101008       -1.3368116231        0.0945870774
 O          6.0232225598       -1.7766177754       -0.9337372224
 O          5.4638545417       -1.6696761014        1.4500429610
 C          4.7859913670        0.4110718193       -0.0491882931
 C          4.4643373605        1.1415566169        1.0769386470
 C          4.1086119830        2.4729566078        0.9312145933
 C          4.0806348183        3.0476985304       -0.3295885474
 C          4.4160900232        2.3029222848       -1.4500940306
 C          4.7653231930        0.9694532837       -1.3120749831
 H          5.0333357305        0.3570229499       -2.1584043974
 H          4.3969848280        2.7545085225       -2.4290089338
 H          3.7924681647        4.0806867859       -0.4406017953
 H          3.8477294232        3.0551686845        1.8002453568
 H          4.5014351301        0.6599091224        2.0399378177
 H          3.5621628741       -2.1810783100       -1.2803071187
 H          3.1759709079       -1.7265213476        2.2745699498
 H          1.2242784177       -0.5616626874        3.2759768851
 H         -0.5107235682        0.4133544127        1.8179592501
 H         -0.4695267372       -0.0373161204       -1.9035802327
 C         -0.5256031770        1.8911531045       -1.0022797588
 C          0.3486551731        2.7283026907       -0.1219499056
 C          0.7253639498        2.5089551936       -1.5539281792
 H          0.6344919647        3.3286868782       -2.2499729038
 H          1.5568565993        1.8487595821       -1.7518392236
 H         -0.0283265540        3.6942630174        0.1765383647
 H          0.9348596861        2.2354490440        0.6373980053
 H         -1.4643407686        2.3393117673       -1.3098905092
