  62
        -98.93810380
 C          1.9013981854        1.4796368598        0.6159746507
 C          0.6927646328        1.4052953329        1.3483643101
 C         -0.3531922197        2.3711592945        0.9730652679
 C         -0.1308496205        3.2319106262       -0.0343300950
 C         -1.1559736161        4.1512122450       -0.6338500333
 C         -2.0807476583        3.3404834773       -1.5661331572
 C         -3.5373349433        3.2675828798       -1.1064824767
 H         -4.0231108196        4.2253675063       -1.3074869277
 H         -4.0297014723        2.5097486296       -1.7202722054
 C         -3.7542774142        2.9288271434        0.3716242169
 H         -4.8011520338        2.6376768298        0.4808844795
 H         -3.6143766591        3.8261010608        0.9769940087
 C         -2.8702038694        1.8095567274        0.9365241090
 H         -3.4762382979        1.2044296627        1.6146285942
 H         -2.5302985288        1.1495083331        0.1369382932
 C         -1.6486342044        2.3075388953        1.7339424383
 H         -1.8663403870        3.2868948065        2.1687092828
 H         -1.4613907276        1.6134647181        2.5583926496
 H         -2.0593855433        3.7742089845       -2.5677159924
 H         -1.6781919681        2.3279797940       -1.6557763075
 H         -0.6224552424        4.9164721112       -1.1983367075
 H         -1.7309473268        4.6333768256        0.1537495768
 O          1.0528804047        3.2967593255       -0.6975735895
 C          2.0765875526        2.4120855064       -0.4092761440
 O          3.0944688733        2.5593642981       -1.1177791783
 O          0.4663131252        0.5724864904        2.2649132155
 C          3.0394402492        0.4796130222        0.7646740725
 C          2.8485336722       -0.5985129555       -0.2742544844
 C          3.8825471596       -1.0039605047       -1.1076949721
 C          3.6506724034       -1.9343655010       -2.1065405037
 C          2.3831731767       -2.4474444588       -2.3125349678
 C          1.3405358831       -2.0487783078       -1.4811168315
 C          1.5918254605       -1.1619499438       -0.4476597419
 H          0.7848326933       -0.8641888181        0.1987531767
 N          0.0396157417       -2.5329736391       -1.6723458635
 S         -1.3219590437       -1.5677694989       -1.4539096699
 O         -2.1911165080       -1.9149006780       -2.5611962782
 O         -0.9802160869       -0.1718558649       -1.3335459318
 C         -2.0440615541       -2.2164093482        0.0408327258
 C         -1.7576932651       -1.6698379885        1.2748001541
 C         -2.3309139257       -2.2342154098        2.4048593900
 C         -3.1730187173       -3.3280649368        2.2871356018
 C         -3.4514582191       -3.8664457039        1.0395761064
 C         -2.8825797758       -3.3080659665       -0.0924229125
 H         -3.0824828302       -3.6848541045       -1.0818503921
 H         -4.1079297098       -4.7166097155        0.9465801069
 H         -3.6145782648       -3.7608017766        3.1710269352
 H         -2.1063817448       -1.8094671826        3.3703100391
 H         -1.1011455725       -0.8185934893        1.3617611312
 H         -0.0703742892       -3.1180625833       -2.4875788948
 H          2.1959524674       -3.1434065924       -3.1164013738
 H          4.4605183815       -2.2430116145       -2.7502638845
 H          4.8632511785       -0.5671834513       -0.9886207590
 H          3.9569411448        1.0307988457        0.5017051936
 C          3.2192487322       -0.0615060950        2.1738222327
 C          2.8378050716       -1.4523690866        2.5722329630
 C          4.2836238746       -1.0830976126        2.4471313957
 H          4.8747672116       -0.9850815557        3.3449477784
 H          4.8266784206       -1.4734841456        1.5995862021
 H          2.4166896876       -1.5909942756        3.5558837595
 H          2.4088504167       -2.0974676625        1.8212755192
 H          3.0794132463        0.7093318824        2.9238219597
