  62
        -98.94848490
 C          0.8266182501        1.2235229923        0.5676932376
 C          1.2017135390        0.5407589198       -0.6140623361
 C          2.1445860439       -0.5697238446       -0.4281658599
 C          2.4721230988       -0.9653979225        0.8146476906
 C          3.4146413767       -2.0838900630        1.1678821362
 C          4.8889053702       -1.6567072082        1.1985583761
 C          5.5158914104       -1.4020134071       -0.1729638950
 H          6.5943226273       -1.3236789476       -0.0216186468
 H          5.3395258032       -2.2639591937       -0.8169384327
 C          5.0215061645       -0.1262952702       -0.8694794261
 H          4.5396807023        0.5255400681       -0.1368864169
 H          5.8765289951        0.4227422534       -1.2705116753
 C          4.0548320183       -0.3687028233       -2.0291938391
 H          3.7460740225        0.6027995767       -2.4229752757
 H          4.5703277429       -0.9071861593       -2.8273049058
 C          2.7898612876       -1.1513329645       -1.6490121998
 H          2.0746628336       -1.0690388710       -2.4699985340
 H          3.0334843126       -2.2009894916       -1.4924071637
 H          4.9800782005       -0.7592026333        1.8149411770
 H          5.4508057765       -2.4545226863        1.6898692529
 H          3.1331866184       -2.4279291731        2.1655824229
 H          3.2943552540       -2.9085315814        0.4654052376
 O          1.9590801431       -0.3783979886        1.9308348656
 C          1.1849593368        0.7674115956        1.8352656200
 O          0.8765788238        1.2744293265        2.9343664003
 O          0.7941209994        0.8532807473       -1.7614736816
 C          0.0097221543        2.4990966923        0.4766037508
 C         -1.3204203849        2.2363738022       -0.1840644934
 C         -1.8356370218        3.0204813322       -1.2081422722
 C         -3.0759433112        2.7343448819       -1.7514841561
 C         -3.8254036778        1.6698568719       -1.2868112881
 C         -3.3222384928        0.8856814610       -0.2539805669
 C         -2.0793589138        1.1718095704        0.2867485216
 H         -1.6993490004        0.5650624490        1.0966366010
 N         -4.0691068617       -0.1854162134        0.2565424699
 S         -3.3268643226       -1.5196541551        0.9130418566
 O         -4.3544366402       -2.5409297889        0.8872926027
 O         -2.7900165116       -1.2156882237        2.2164920561
 C         -2.0180958992       -2.0053991742       -0.1976554506
 C         -0.8879371000       -2.5801917714        0.3455048323
 C          0.0851164938       -3.0828494085       -0.5020724793
 C         -0.0814132998       -2.9912080729       -1.8744311768
 C         -1.2118533112       -2.3920461249       -2.4054097620
 C         -2.1963762919       -1.9031883543       -1.5626063394
 H         -3.0889728333       -1.4459766522       -1.9570351064
 H         -1.3324426138       -2.3084560973       -3.4732655453
 H          0.6744353926       -3.3883803531       -2.5329378548
 H          0.9634155068       -3.5476236836       -0.0847998532
 H         -0.7904421707       -2.6191656345        1.4195653661
 H         -4.9099208684       -0.4178939000       -0.2503804352
 H         -4.7930742699        1.4478375760       -1.7097834200
 H         -3.4634309486        3.3482231342       -2.5501004763
 H         -1.2662645594        3.8544429717       -1.5832889089
 H         -0.1889795311        2.8059182956        1.5145532094
 C          0.8247620632        3.5794393166       -0.2053147734
 C          0.6018374105        5.0221092974        0.1316710546
 C          1.8455392189        4.3272993884        0.5965053434
 H          2.7855426861        4.5804531837        0.1294591009
 H          1.9330544305        4.0763611897        1.6441310628
 H          0.6917369010        5.7566247336       -0.6543473747
 H         -0.1534308112        5.2525889330        0.8678490163
 H          1.0825118885        3.3240357008       -1.2266520658
