  62
        -98.93686671
 C         -2.4105432358       -1.0670486320       -0.2145544705
 C         -2.5045343010        0.1596929763        0.4882621249
 C         -3.8654041590        0.5743978435        0.8616788725
 C         -4.9127336323       -0.2234985354        0.5895896748
 C         -6.3526761986        0.0544112259        0.9258054394
 C         -7.0732816537        0.9365043426       -0.1029705295
 C         -6.6672834358        2.4107851131       -0.0937921618
 H         -7.3963915270        2.9473288135       -0.7041403595
 H         -6.7424356954        2.8008531287        0.9216603580
 C         -5.2627568839        2.6851069972       -0.6495071457
 H         -4.9232673839        1.8218521967       -1.2268820023
 H         -5.3019999779        3.5325595122       -1.3376331961
 C         -4.2134565867        3.0132192609        0.4129389194
 H         -4.4747053995        3.9509026890        0.9083943604
 H         -3.2515811136        3.1544433896       -0.0872489739
 C         -4.0366458742        1.9276945666        1.4829584250
 H         -4.8866430750        1.9296527405        2.1648366211
 H         -3.1292068395        2.1485034758        2.0504277771
 H         -8.1432934523        0.8752720829        0.1082631670
 H         -6.9068790197        0.5189704415       -1.0987329740
 H         -6.8555126485       -0.9144021514        0.9613126561
 H         -6.4164738405        0.5160110511        1.9114770823
 O         -4.7712323108       -1.4286493352       -0.0248066628
 C         -3.5299168637       -1.8688189039       -0.4532982646
 O         -3.5503920219       -2.9833977515       -1.0133190987
 O         -1.5200185015        0.8789535282        0.7966398552
 C         -1.0784468620       -1.6071946779       -0.7032716404
 C         -0.0254981339       -1.4713355063        0.3688514653
 C         -0.2201889398       -2.1299794414        1.5809108638
 C          0.7217304036       -2.0515954106        2.5875003805
 C          1.8907878262       -1.3350585365        2.3992866493
 C          2.0923654406       -0.6709923533        1.1959442819
 C          1.1356686491       -0.7374593328        0.1923821179
 H          1.3115126604       -0.1925953902       -0.7200570694
 N          3.2564698906        0.0834131383        0.9789026328
 S          3.9146608626        0.1081726389       -0.5742534543
 O          3.2837394317        1.1532932099       -1.3403051617
 O          3.8740676177       -1.2175706657       -1.1505244863
 C          5.5986836410        0.5676263670       -0.2059737570
 C          6.5614880040       -0.4185047002       -0.1012035642
 C          7.8613497753       -0.0558624669        0.2150698014
 C          8.1742082426        1.2790238199        0.4231777843
 C          7.1973927811        2.2577607060        0.3136601627
 C          5.8960050071        1.9022538101       -0.0034616522
 H          5.1061118512        2.6278366450       -0.1079147876
 H          7.4449553868        3.2948133258        0.4732326808
 H          9.1863221502        1.5588379443        0.6694201273
 H          8.6234691865       -0.8139382262        0.2973216888
 H          6.2735728633       -1.4420318272       -0.2799494226
 H          3.9619394327       -0.0631902909        1.6875319274
 H          2.6325467815       -1.2798592649        3.1816924177
 H          0.5515729300       -2.5623436171        3.5235617527
 H         -1.1295835997       -2.6991878044        1.7230233218
 H         -1.2489560183       -2.6854813659       -0.8644014882
 C         -0.6360553236       -1.0357275970       -2.0423174553
 C         -1.6365079428       -0.6094220946       -3.0735391435
 C         -0.7893416005        0.4146933666       -2.3830324370
 H          0.0037526556        0.8942251771       -2.9389774999
 H         -1.2483990122        1.0542433963       -1.6458531154
 H         -1.4330691157       -0.8358866054       -4.1093407062
 H         -2.6825097716       -0.6713308670       -2.8096761264
 H          0.2579891502       -1.5283204103       -2.4156891468
