  62
        -98.93721997
 C         -1.2576134087       -1.4601948024        0.6080079660
 C         -2.0620157990       -0.9962764298       -0.4611703421
 C         -3.0841984084        0.0098766122       -0.1206593097
 C         -3.1928743438        0.4486941895        1.1439826861
 C         -4.1820849394        1.4329623662        1.7158836570
 C         -4.4577980473        2.7093879219        0.9092070263
 C         -3.2656172549        3.2454207520        0.1025339213
 H         -3.1443359039        4.3098003483        0.3144943090
 H         -2.3396228489        2.7526114241        0.4079435272
 C         -3.4477680254        3.0884587245       -1.4091162874
 H         -2.7763453270        3.7877393147       -1.9135821490
 H         -4.4714285929        3.3665411690       -1.6712777186
 C         -3.1469696048        1.6969476286       -1.9632699149
 H         -2.0730846872        1.5000981501       -1.8893836510
 H         -3.4009475035        1.6946300687       -3.0262268477
 C         -3.8861770976        0.5370640218       -1.2749232998
 H         -4.8875928975        0.8323405278       -0.9709595673
 H         -3.9651405441       -0.2843853770       -1.9921451423
 H         -5.2932873890        2.5388234195        0.2313355204
 H         -4.7821913410        3.4685321592        1.6230722707
 H         -5.1264798855        0.9074632216        1.8861257429
 H         -3.7801103554        1.7010493170        2.6959602401
 O         -2.3799435545       -0.0054927569        2.1394929875
 C         -1.3759549064       -0.9254609484        1.8911574336
 O         -0.6610282327       -1.1809820561        2.8822833125
 O         -1.9471943638       -1.3947942993       -1.6483865979
 C         -0.1070949259       -2.4250511110        0.3780637730
 C          0.7292637605       -1.9435130719       -0.7842658481
 C          1.2289484085       -2.7630642351       -1.7871667448
 C          2.0072788865       -2.2278222701       -2.8001068051
 C          2.3153433234       -0.8800119400       -2.8305163111
 C          1.8161273064       -0.0507622102       -1.8317592892
 C          1.0388447194       -0.5904688196       -0.8225149900
 H          0.6292949875        0.0645074470       -0.0694805891
 N          2.0801555802        1.3257888748       -1.8248132016
 S          2.1324610153        2.1743795470       -0.3898034013
 O          0.8077638995        2.3410787866        0.1544004813
 O          2.8317357538        3.3955514200       -0.7293310157
 C          3.1507503007        1.1859788334        0.6923189720
 C          4.4822127471        1.0417402963        0.3511098236
 C          5.2981225058        0.2500971736        1.1416337074
 C          4.7707107486       -0.3871569556        2.2549945908
 C          3.4351563377       -0.2279103794        2.5885835550
 C          2.6149387890        0.5667536572        1.8024557789
 H          1.5709816314        0.7011284537        2.0419172057
 H          3.0154612594       -0.7209845598        3.4512232490
 H          5.4027393184       -1.0093011817        2.8687394773
 H          6.3387097628        0.1291307654        0.8874918430
 H          4.8576873023        1.5616997978       -0.5150906261
 H          2.7595750322        1.6470397166       -2.4971750041
 H          2.9188354409       -0.4678653179       -3.6243613100
 H          2.3818215913       -2.8733572188       -3.5799738380
 H          0.9936183635       -3.8145337256       -1.7912327437
 H          0.5166804215       -2.3317157112        1.2837891941
 C         -0.5060558667       -3.8904604051        0.2816859293
 C         -1.8305959209       -4.3718247873        0.7927193544
 C         -1.5492997098       -4.3747873243       -0.6783252256
 H         -1.3940010746       -5.3257336945       -1.1669102504
 H         -2.0333747559       -3.6352860058       -1.2956935949
 H         -1.8653540199       -5.3157122674        1.3162260261
 H         -2.5170646779       -3.6320738895        1.1795184443
 H          0.3369610383       -4.5519901269        0.4557183370
