  62
        -98.94848255
 C          0.8304153482        1.2245152498        0.5687729647
 C          1.2027922072        0.5410330636       -0.6134378121
 C          2.1432475830       -0.5716434220       -0.4289440805
 C          2.4759620141       -0.9647386505        0.8133309446
 C          3.4185687499       -2.0838241522        1.1647440913
 C          4.8940381793       -1.6601676929        1.1852646673
 C          5.5135038120       -1.4111830370       -0.1907175560
 H          6.5929881421       -1.3352311470       -0.0459009300
 H          5.3311776542       -2.2746359979       -0.8310178786
 C          5.0183205553       -0.1362912877       -0.8882022722
 H          5.8723234777        0.4096636971       -1.2955564736
 H          4.5419627695        0.5187522499       -0.1549124307
 C          4.0445309980       -0.3799286415       -2.0416602191
 H          3.7353093694        0.5909743179       -2.4365457956
 H          4.5541955355       -0.9218395525       -2.8411818256
 C          2.7804113779       -1.1588307165       -1.6513721547
 H          2.0605517375       -1.0783743809       -2.4685003273
 H          3.0230491431       -2.2083164326       -1.4921525796
 H          4.9913627006       -0.7611916787        1.7985204381
 H          5.4568022902       -2.4581241598        1.6753922646
 H          3.2925436159       -2.9105447140        0.4657089756
 H          3.1424063232       -2.4239527047        2.1652510117
 O          1.9686244748       -0.3745885684        1.9303999873
 C          1.1927308168        0.7701652853        1.8358087693
 O          0.8868761887        1.2778863183        2.9352674821
 O          0.7943089307        0.8544839906       -1.7602900683
 C          0.0134148613        2.5000907138        0.4779788131
 C         -1.3112397980        2.2387124182       -0.1940581483
 C         -1.8142681085        3.0194794977       -1.2266565078
 C         -3.0491211411        2.7329913851       -1.7820665058
 C         -3.8055254861        1.6721718938       -1.3203720315
 C         -3.3152217131        0.8921053481       -0.2782516835
 C         -2.0772865660        1.1779058970        0.2738592413
 H         -1.7067432863        0.5740624811        1.0903088936
 N         -4.0713817517       -0.1733160199        0.2303193220
 S         -3.3441621044       -1.5043642799        0.9094896748
 O         -4.3771636018       -2.5200782980        0.8828665512
 O         -2.8205590533       -1.1890430808        2.2156255421
 C         -2.0258717622       -2.0089549304       -0.1811918631
 C         -0.8976651918       -2.5700068897        0.3802186127
 C          0.0818358156       -3.0865875812       -0.4514906683
 C         -0.0765830500       -3.0225974550       -1.8263805609
 C         -1.2054144851       -2.4370867890       -2.3759671920
 C         -2.1961036098       -1.9339324178       -1.5489731279
 H         -3.0880241971       -1.4876586748       -1.9572244852
 H         -1.3199520472       -2.3755045522       -3.4460296635
 H          0.6843115902       -3.4306205676       -2.4722957371
 H          0.9587718238       -3.5406390065       -0.0198620598
 H         -0.8067242994       -2.5881717192        1.4554556747
 H         -4.9064910518       -0.4066309856       -0.2855140635
 H         -4.7689880895        1.4498633528       -1.7526988831
 H         -3.4266289398        3.3436673057       -2.5878932367
 H         -1.2395514911        3.8508121960       -1.5994626718
 H         -0.1927628410        2.8023894708        1.5157514706
 C          0.8330452631        3.5835393027       -0.1934279668
 C          0.6035509411        5.0249937887        0.1442381353
 C          1.8442652823        4.3320609405        0.6197580558
 H          2.7881778230        4.5883071954        0.1623884517
 H          1.9222167865        4.0790438259        1.6676280355
 H          0.6992264579        5.7612056945       -0.6394988248
 H         -0.1593709909        5.2522641444        0.8734648977
 H          1.1013709522        3.3310111170       -1.2128041007
