  62
        -98.93599643
 C          1.1441794598        1.3953574612        0.2444889306
 C          2.0744712198        0.9562700612        1.2189332406
 C          2.8451384798       -0.2526869488        0.8915510606
 C          2.5905354799       -0.8955921487       -0.2623378395
 C          3.3439311700       -2.0890532986       -0.7772333395
 C          4.6972950900       -1.6405212885       -1.3652744194
 C          5.9180958500       -2.1574605686       -0.6038919593
 H          6.0670578700       -3.2121594786       -0.8448179794
 H          6.7889114800       -1.6102055685       -0.9712538192
 C          5.8572165899       -2.0301675287        0.9214986707
 H          6.8724396398       -2.1830749487        1.2939506507
 H          5.2510045898       -2.8380212788        1.3342540805
 C          5.3308341098       -0.6949036288        1.4637675007
 H          5.9203130697       -0.4302301588        2.3440877208
 H          5.4779637598        0.1013539413        0.7335697508
 C          3.8548462798       -0.7181563989        1.9039615606
 H          3.5930693597       -1.7226983989        2.2482074205
 H          3.7334810797       -0.0393723689        2.7535733107
 H          4.7744902901       -1.9757778184       -2.4005643394
 H          4.7172293900       -0.5488839785       -1.3870598693
 H          2.7316770901       -2.5543768586       -1.5490313796
 H          3.4962410699       -2.8046139087        0.0276706004
 O          1.6497904300       -0.4782698586       -1.1449125195
 C          0.8949057399        0.6658719213       -0.9203869195
 O          0.0642518600        0.9026903514       -1.8132000695
 O          2.2464274197        1.5455340311        2.3208523707
 C          0.3264107698        2.6372079112        0.5562882707
 C         -1.1317746602        2.3402185112        0.3179717205
 C         -1.9128537501        2.9881000112       -0.6284401395
 C         -3.2305723401        2.6114568412       -0.8253765096
 C         -3.7972254201        1.5902594711       -0.0851229198
 C         -3.0247983502        0.9407664211        0.8691553402
 C         -1.7077527702        1.3204569311        1.0665133204
 H         -1.1038878103        0.8042209410        1.8035666004
 N         -3.5879610402       -0.1112665190        1.6256525401
 S         -4.0811992001       -1.4571192389        0.7573307599
 O         -5.2464250701       -1.1127361989       -0.0163170401
 O         -4.2553030202       -2.5015847090        1.7422013198
 C         -2.7198808200       -1.8528727488       -0.3231830500
 C         -1.6841954101       -2.6167469188        0.1768816800
 C         -0.6085082100       -2.9068736987       -0.6457828299
 C         -0.5844996199       -2.4229261286       -1.9445087299
 C         -1.6248122899       -1.6453333586       -2.4265239899
 C         -2.7047993200       -1.3544765187       -1.6095694199
 H         -3.5336722099       -0.7554666087       -1.9493368800
 H         -1.5908329898       -1.2542962385       -3.4300068398
 H          0.2551712501       -2.6423744585       -2.5847207098
 H          0.2089541100       -3.5025858087       -0.2707830499
 H         -1.7452785801       -2.9835411289        1.1895509800
 H         -2.9900519703       -0.4115796291        2.3831735501
 H         -4.8153579601        1.2720429111       -0.2411790199
 H         -3.8234085101        3.1165014013       -1.5728677996
 H         -1.4816471801        3.7679606413       -1.2340524294
 H          0.4689611197        2.7931056611        1.6388770907
 C          0.8109721198        3.9056548113       -0.1277166292
 C          2.2616278698        4.0919563913       -0.4553104891
 C          1.2591522099        3.9338098014       -1.5569115692
 H          1.0138010499        4.8018235714       -2.1514087791
 H          1.2366879700        3.0071992914       -2.1078204392
 H          2.7050781898        5.0631204413       -0.2941990189
 H          2.9290165298        3.2678401413       -0.2485767191
 H          0.2848132598        4.7838574712        0.2342180908
