  62
        -98.94227295
 C          2.4998980925       -0.0041341629        0.1403000192
 C          1.5396489699       -0.3502178811       -0.8402624293
 C          1.1343436608       -1.7619511625       -0.8868824216
 C          1.6552398887       -2.6256394777        0.0018201106
 C          1.2246803870       -4.0531952615        0.1797316894
 C         -0.1034504396       -4.0876809923        0.9649212065
 C         -1.2915284546       -4.6354490820        0.1736178414
 H         -1.2001360476       -5.7216222486        0.0996016992
 H         -2.1912995677       -4.4159765131        0.7529034561
 C         -1.4624965733       -4.0777072742       -1.2427880652
 H         -0.7796123503       -4.5901347370       -1.9225805181
 H         -2.4743938404       -4.3322180434       -1.5649424242
 C         -1.2642107432       -2.5637534461       -1.3927427062
 H         -1.4445275799       -2.0559469127       -0.4440639131
 H         -2.0076805209       -2.1893279475       -2.1001133636
 C          0.1216950468       -2.1529641371       -1.9270525401
 H          0.5280073464       -2.9534582070       -2.5515290951
 H          0.0036605144       -1.2669315068       -2.5570909856
 H          0.0198238765       -4.6957065881        1.8631198104
 H         -0.3311983096       -3.0733192045        1.3035621096
 H          1.1104089297       -4.5318912990       -0.7903539084
 H          2.0089689426       -4.5676962313        0.7356996580
 O          2.5844182234       -2.2632104737        0.9240473334
 C          3.0009813546       -0.9472251249        1.0385788438
 O          3.8098359946       -0.7446949311        1.9680584984
 H          0.7303605260        0.9467801475        1.8153701377
 C          0.5969303065        1.8371798226        1.2171327082
 C          1.6322001730        2.2787092471        0.4009957409
 C          1.4369288112        3.4294617331       -0.3504708136
 C          0.2257889890        4.0996580158       -0.3019549266
 C         -0.8202038403        3.6231057319        0.4666732003
 C         -0.6321690176        2.4728943476        1.2251243671
 N         -1.6710401161        1.9170342923        2.0020413619
 S         -2.2176098053        0.3900104761        1.5738811120
 O         -3.2530319467        0.0790221760        2.5368929099
 O         -1.1134793200       -0.5325878290        1.5118404295
 C         -2.9667922732        0.6153150032       -0.0302783845
 C         -2.1641747766        0.8179959087       -1.1349875394
 C         -2.7692546493        1.0535181509       -2.3606314861
 C         -4.1512084056        1.0837254054       -2.4617515659
 C         -4.9419460728        0.8786684482       -1.3409058691
 C         -4.3460322846        0.6474593420       -0.1120753835
 H         -4.9180086127        0.4825018376        0.7867726133
 H         -6.0169714012        0.9002613296       -1.4198794665
 H         -4.6132983015        1.2670036402       -3.4190696582
 H         -2.1464307850        1.2120506229       -3.2264997096
 H         -1.0896967498        0.7824019252       -1.0436656179
 H         -2.4692888704        2.5283212670        2.1098337121
 H         -1.7750821370        4.1270760655        0.4761123489
 H          0.0869872768        4.9921342884       -0.8928310101
 H          2.2226545191        3.7894763421       -0.9940651465
 C          2.8919971469        1.4457845242        0.3809536975
 H          3.3182417705        1.4563898931        1.3984368725
 C          3.9706014806        1.9834551512       -0.5464313105
 C          4.9404294328        1.0574646169       -1.2166082760
 C          3.9192768590        1.7901551993       -2.0310596783
 H          4.2566039511        2.5982131053       -2.6636663313
 H          3.0849687657        1.2369674039       -2.4307667142
 H          5.9742706590        1.3613387815       -1.2858731745
 H          4.8069803201       -0.0033644822       -1.0592545620
 H          4.3787517606        2.9243326363       -0.1900017268
 O          1.0266128956        0.4782498972       -1.6379980687
