  62
        -98.93072943
 C         -2.2982376134       -1.0132146391        0.6692170682
 C         -3.1655227532       -0.9356608996       -0.4452354007
 C         -4.2332174117        0.0861097106       -0.3785402912
 C         -4.3144227785        0.8873450620        0.6975988149
 C         -5.2965315760        1.9958205736        0.9817456405
 C         -6.7722851995        1.7067266834        0.6657586471
 C         -7.3016926923        2.4913055591       -0.5358682651
 H         -8.3865813606        2.5798650628       -0.4447018895
 H         -6.8885416425        3.5015340433       -0.5000625846
 C         -7.0016385856        1.8709188273       -1.8992708164
 H         -7.6179485783        0.9793537476       -2.0337832442
 H         -7.3022585977        2.5916934378       -2.6633169780
 C         -5.5397568977        1.4863170751       -2.1360979718
 H         -4.8735128117        2.2517164212       -1.7396362976
 H         -5.3755529082        1.4500392526       -3.2151601641
 C         -5.1640686260        0.1126895947       -1.5605660652
 H         -6.0700367919       -0.4454070523       -1.3070821899
 H         -4.6519238979       -0.4778635251       -2.3265371152
 H         -7.3611306833        1.9912524239        1.5393026352
 H         -6.9164527123        0.6381179387        0.5143398873
 H         -4.9711142434        2.8922204116        0.4478547464
 H         -5.1797590321        2.2101837467        2.0465952437
 O         -3.4295278171        0.8017191393        1.7337100418
 C         -2.4143528189       -0.1327036416        1.7466417746
 O         -1.6912577828       -0.0928747869        2.7638831938
 O         -3.0752879624       -1.6743817402       -1.4586827975
 C         -1.1570407062       -2.0136868781        0.7709527564
 C          0.0764460235       -1.4106464139        0.1501925286
 C          0.1047730570       -1.0513408113       -1.1945850934
 C          1.2330179182       -0.4645491212       -1.7363427083
 C          2.3476658668       -0.2150240938       -0.9532622475
 C          2.3188929696       -0.5442791142        0.3945347118
 C          1.1895753644       -1.1484128491        0.9338406517
 H          1.1653306044       -1.3919252379        1.9876510277
 N          3.4405258386       -0.2884852179        1.1996031742
 S          4.2122516512        1.1963389484        1.0694721205
 O          4.8808559202        1.3819925781        2.3387660445
 O          3.3001013869        2.2400523903        0.6629341306
 C          5.4379767070        0.9229878998       -0.1939117001
 C          5.5188844367        1.7816980374       -1.2725410279
 C          6.4873982869        1.5555647026       -2.2383918973
 C          7.3535328495        0.4808320519       -2.1087724710
 C          7.2612357416       -0.3705617411       -1.0177128889
 C          6.2965039634       -0.1491860934       -0.0480465552
 H          6.1943616054       -0.7850106179        0.8153565739
 H          7.9366217457       -1.2052419162       -0.9203525943
 H          8.1050503996        0.3060332946       -2.8624269924
 H          6.5609138863        2.2170984139       -3.0866084087
 H          4.8199106260        2.6007850616       -1.3349898773
 H          3.3120730051       -0.5415040177        2.1688102407
 H          3.2254181609        0.2494325268       -1.3718158626
 H          1.2459731371       -0.1946961464       -2.7815041101
 H         -0.7706256297       -1.2308463364       -1.8003276108
 H         -0.9671160788       -2.1147712070        1.8511486877
 C         -1.5137412620       -3.3954207680        0.2394981093
 C         -0.7788733176       -4.0750207237       -0.8736866208
 C         -0.6060538301       -4.5537299430        0.5339358768
 H         -1.0443192327       -5.4965809164        0.8241831348
 H          0.3309343112       -4.3328346926        1.0236047366
 H         -1.3591218168       -4.6736757632       -1.5591405726
 H          0.0454729798       -3.5571939286       -1.3374488613
 H         -2.5787291077       -3.5914136605        0.2964085455
