  62
        -98.94451644
 C          1.3691591080        1.4675186705        0.4172108200
 C          1.7239924284        0.4458864507        1.3344621600
 C          2.8469081486       -0.4175150890        0.9515296500
 C          3.4540370685       -0.2170220988       -0.2313863400
 C          4.5917825188       -1.0374552684       -0.7643488000
 C          4.0893583892       -2.1916618486       -1.6417303100
 C          2.9785647295       -3.0259876990       -1.0023844199
 H          2.0665354493       -2.4280303193       -0.9238175099
 H          2.7527374497       -3.8446644491       -1.6900528299
 C          3.3264687697       -3.6033868888        0.3767973501
 H          2.9903015500       -4.6419106889        0.4107934201
 H          4.4084072197       -3.6063171885        0.5174986400
 C          2.6593200295       -2.8834630590        1.5504599801
 H          1.5926855294       -2.7679394594        1.3369272101
 H          2.7512108097       -3.5177536290        2.4365231501
 C          3.2394420690       -1.5081450388        1.9070226600
 H          4.3258999291       -1.5777900785        1.9927890500
 H          2.8348040990       -1.2168004089        2.8807664500
 H          3.7063139090       -1.7761930988       -2.5767969200
 H          4.9377813794       -2.8370203983       -1.8785859800
 H          5.2292033386       -0.3881130882       -1.3674689201
 H          5.1723097090       -1.4272839982        0.0696274000
 O          3.0663415182        0.7466932910       -1.1033239800
 C          1.9830279079        1.5738231907       -0.8320888800
 O          1.6905592676        2.3382146706       -1.7700366700
 O          1.1174079885        0.2581387505        2.4240134001
 C          0.1523095777        2.3120687001        0.7527745900
 C         -0.8877412822        2.1429783198       -0.3275928599
 C         -1.6102767226        3.1781895495       -0.9043693099
 C         -2.5623325126        2.9050200592       -1.8729998499
 C         -2.8296374321        1.6074956091       -2.2707641898
 C         -2.1079185518        0.5644369093       -1.7000432798
 C         -1.1506528218        0.8441920697       -0.7417685999
 H         -0.5718641315        0.0333629199       -0.3291650799
 N         -2.3239023413       -0.7706494908       -2.0682902898
 S         -2.0761589409       -1.9945105307       -0.9582026398
 O         -0.6673123708       -2.2086977402       -0.7416422398
 O         -2.8058619005       -3.1186671609       -1.5058935397
 C         -2.8790180510       -1.4336637209        0.5338211502
 C         -4.2555166411       -1.3139588513        0.4993635303
 C         -4.9196834212       -0.8460072015        1.6204976103
 C         -4.1988762413       -0.5017086813        2.7543580103
 C         -2.8197239312       -0.6335696708        2.7763736102
 C         -2.1497526011       -1.1048658806        1.6576593302
 H         -1.0753566211       -1.2070962703        1.6544411702
 H         -2.2501952513       -0.3666872906        3.6524438702
 H         -4.7135002914       -0.1308626914        3.6266391603
 H         -5.9931442512       -0.7479257519        1.6069854103
 H         -4.7813406910       -1.6024461715       -0.3961999897
 H         -3.1194327213       -0.9386064210       -2.6649253298
 H         -3.5742056521        1.4021216088       -3.0242792198
 H         -3.1104374128        3.7186783990       -2.3232887999
 H         -1.4162505229        4.1976502496       -0.6141660400
 H         -0.2523170121        1.8334387300        1.6620440801
 C          0.4315588873        3.7588493202        1.1274796800
 C          1.7967192471        4.2017040707        1.5598125799
 C          1.2275609669        4.6876186605        0.2621789799
 H          0.9132529166        5.7193358204        0.1978031299
 H          1.6297351570        4.2912834106       -0.6560183801
 H          1.8762128669        4.8950765907        2.3838084799
 H          2.5934541274        3.4723642010        1.5222861799
 H         -0.4014181129        4.2011079400        1.6657215400
