  62
        -98.93979472
 C         -1.7367981607       -1.3158241567        0.4849284108
 C         -1.5456453534       -0.2412058701       -0.4199105093
 C         -2.7651125966        0.2854759045       -1.0573072618
 C         -3.9584906858       -0.2594008709       -0.7636427652
 C         -5.2772295975        0.2130820952       -1.3017703929
 C         -5.9098854049        1.2615798406       -0.3762784177
 C         -4.9550137067        2.3850536517        0.0280160056
 H         -5.5181808658        3.0816900296        0.6528663023
 H         -4.1567129778        1.9714172484        0.6489347168
 C         -4.3334089385        3.1454164486       -1.1518188032
 H         -4.9171439784        2.9682066898       -2.0559660922
 H         -4.3787966543        4.2160790841       -0.9414153650
 C         -2.8657538602        2.8084173510       -1.4229982119
 H         -2.4703786508        3.5497386037       -2.1230119220
 H         -2.2889100310        2.8979888655       -0.4982511856
 C         -2.5977891643        1.4232712026       -2.0247918730
 H         -3.2257721196        1.2772609984       -2.9062603782
 H         -1.5502255812        1.4006139451       -2.3397513554
 H         -6.7807565393        1.6858605500       -0.8791551072
 H         -6.2523140122        0.7605469597        0.5321028381
 H         -5.1298301074        0.6316873885       -2.2953597281
 H         -5.9469269368       -0.6455534989       -1.3740436453
 O         -4.1036561448       -1.2870468615        0.1108670549
 C         -3.0090137105       -1.8207436378        0.7702985686
 O         -3.2947482447       -2.7293657640        1.5755834165
 O         -0.4266400772        0.2568728546       -0.7014151563
 C         -0.5844247016       -1.9379366277        1.2570743117
 C          0.2264334442       -0.8583312262        1.9296206526
 C         -0.3094982192       -0.2343576714        3.0530884341
 C          0.3942119997        0.7483497486        3.7214806202
 C          1.6452322688        1.1331496713        3.2731891218
 C          2.1829064149        0.5311367346        2.1429097799
 C          1.4777285562       -0.4647613472        1.4796464394
 H          1.9024822862       -0.9187271439        0.5995630616
 N          3.4605545534        0.9001982765        1.6720749320
 S          3.5491439245        1.6415651513        0.1606497952
 O          4.8107369254        2.3560797605        0.1956752165
 O          2.3811203845        2.4495236621       -0.0988220853
 C          3.6948427958        0.3077197675       -1.0054029673
 C          4.8960366814       -0.3735018043       -1.0512886166
 C          5.0534530872       -1.3907455451       -1.9778689973
 C          4.0155383298       -1.6987933310       -2.8450741929
 C          2.8170094389       -1.0048077026       -2.7838471219
 C          2.6470694047        0.0081602038       -1.8517577784
 H          1.7184160410        0.5472223361       -1.7507200158
 H          2.0080777883       -1.2484062853       -3.4544311438
 H          4.1393906997       -2.4856866291       -3.5727210835
 H          5.9822727736       -1.9360766900       -2.0258165940
 H          5.6812194169       -0.0860581423       -0.3719354913
 H          3.9746434210        1.4686333975        2.3322431808
 H          2.2012485310        1.9018121282        3.7899138593
 H         -0.0324316459        1.2193378397        4.5944820705
 H         -1.2904307090       -0.5345133862        3.3971493825
 H         -1.0703974125       -2.5253562012        2.0532912533
 C          0.2636244589       -2.9190978280        0.4625167371
 C         -0.3945801289       -3.9061870066       -0.4546856866
 C          0.4739635238       -2.8230121761       -1.0162687112
 H          1.4435554656       -3.0944236444       -1.4070999726
 H          0.0052429278       -2.0065370650       -1.5407955861
 H         -0.0298343051       -4.9220176728       -0.4678957851
 H         -1.4643856881       -3.8237048630       -0.5831422346
 H          1.0992623753       -3.2893915456        1.0486306120
