  62
        -98.94781384
 C          1.0622907638        1.2222095936        0.0645581490
 C          1.5506114105        0.2128387746        0.9268416127
 C          2.4362839245       -0.7855837079        0.3142789389
 C          2.7142718578       -0.6993511757       -0.9994710896
 C          3.6258924396       -1.6308973243       -1.7435858382
 C          5.0718056657       -1.1154840012       -1.7458051428
 C          5.5844951065       -0.7122023398       -0.3632152583
 H          6.6224404556       -0.3940313374       -0.4817088800
 H          5.0194532712        0.1550497198       -0.0141857127
 C          5.5073357842       -1.8253382693        0.6909665343
 H          5.3981366278       -2.7930381316        0.1999120421
 H          6.4473464723       -1.8474817806        1.2462583036
 C          4.3873592793       -1.6491058701        1.7177136408
 H          4.4375408039       -0.6442741644        2.1442559071
 H          4.5573128230       -2.3599556748        2.5306530601
 C          2.9622635947       -1.8808283404        1.1995422981
 H          2.9050868834       -2.8465672624        0.6918634003
 H          2.2961618515       -1.9098791892        2.0670955635
 H          5.7140983857       -1.8934351879       -2.1626987488
 H          5.1260637692       -0.2427055884       -2.4006542684
 H          3.5795162850       -2.6174146383       -1.2856493997
 H          3.2701021121       -1.7058562039       -2.7728891972
 O          2.2288390712        0.2848810896       -1.7974554977
 C          1.3825378034        1.2623544748       -1.2928639973
 O          0.9978861449        2.0939489618       -2.1371124384
 O          1.2520507671        0.1439461682        2.1499110128
 C          0.0976443450        2.2498483728        0.6201859697
 C         -1.2597971305        2.1484468021       -0.0364833813
 C         -2.1412429009        3.2231200323       -0.0856676612
 C         -3.3891980880        3.0794634108       -0.6660007857
 C         -3.7924235630        1.8679477386       -1.1981857028
 C         -2.9187346612        0.7873397223       -1.1548535729
 C         -1.6707018753        0.9362230341       -0.5710953009
 H         -0.9940536153        0.0969348853       -0.5692391657
 N         -3.2763593750       -0.4507234293       -1.6997545794
 S         -2.5625726506       -1.8756435259       -1.2197673178
 O         -1.2041985343       -1.9566230209       -1.6985471051
 O         -3.4653692007       -2.8957954938       -1.7106384557
 C         -2.5980828636       -1.8531871782        0.5630509899
 C         -1.4186185505       -1.8744497425        1.2775342062
 C         -1.4681139153       -1.8145402321        2.6608214738
 C         -2.6942531215       -1.7447588308        3.3030808608
 C         -3.8732747913       -1.7413598322        2.5725260493
 C         -3.8278941259       -1.7915120636        1.1891584250
 H         -4.7234252446       -1.7942549734        0.5896572431
 H         -4.8248082406       -1.6926838018        3.0769250504
 H         -2.7287446541       -1.6932255464        4.3798630766
 H         -0.5456046136       -1.7975400929        3.2189452557
 H         -0.4795403967       -1.9232400195        0.7474050122
 H         -4.2387440186       -0.5554443798       -1.9805605580
 H         -4.7642842959        1.7595814682       -1.6539529347
 H         -4.0606035380        3.9237491598       -0.7027857506
 H         -1.8457702439        4.1749170072        0.3247766529
 H         -0.0254613833        1.9875236179        1.6828597526
 C          0.6860209910        3.6448785926        0.5311068406
 C          0.4405392070        4.6503051719        1.6153565158
 C          1.7926052519        4.0221241963        1.4690259494
 H          2.6073708951        4.6216532857        1.0916939736
 H          2.0951121730        3.2838702890        2.1975559195
 H          0.3276089514        5.6878202709        1.3387637603
 H         -0.1656171618        4.3458465579        2.4552267842
 H          0.7557897169        3.9990867873       -0.4912209400
