  62
        -98.93924154
 C          2.5426175099        1.1716364793        0.6154629903
 C          3.4107433301        0.9843216793       -0.4888164895
 C          4.4551159299       -0.0355400409       -0.3085069395
 C          4.5333530496       -0.7295383511        0.8402061405
 C          5.5482737293       -1.7902004213        1.1700735805
 C          5.1881686992       -3.1841140711        0.6378698103
 C          5.3310792795       -3.3601976109       -0.8745043197
 H          6.3238455297       -3.0327459610       -1.1848518895
 H          5.2618726794       -4.4303889409       -1.0794946299
 C          4.2635809798       -2.6298499407       -1.7014102199
 H          3.4203731097       -2.3664870806       -1.0580422400
 H          3.8779340799       -3.3014564005       -2.4717975900
 C          4.7619311402       -1.3690029306       -2.4076415296
 H          3.9174458504       -0.9135795504       -2.9305982497
 H          5.5136302603       -1.6395483506       -3.1524357894
 C          5.3623566201       -0.3143808109       -1.4691127193
 H          6.3417498300       -0.6372678611       -1.1171469091
 H          5.4793759704        0.6157708792       -2.0304528591
 H          4.1635446191       -3.4180666610        0.9370022400
 H          5.8493676190       -3.9013184513        1.1298142003
 H          5.6012186391       -1.8409832914        2.2597947306
 H          6.5257817195       -1.4946204314        0.7879608908
 O          3.6750138494       -0.5248883511        1.8758728703
 C          2.6575236195        0.4076197691        1.7799460402
 O          1.9308450493        0.4770290291        2.7934281101
 O          3.3406928005        1.6226114895       -1.5689295695
 C          1.3951525100        2.1699744994        0.6109725602
 C          0.1677038001        1.4955709697        0.0545960398
 C          0.1550085403        0.9768643999       -1.2374205503
 C         -0.9658607697        0.3256576801       -1.7170385306
 C         -2.0896805399        0.1709283702       -0.9225879109
 C         -2.0778217701        0.6625645100        0.3750884792
 C         -0.9547414601        1.3289132198        0.8507976695
 H         -0.9434745103        1.6992213696        1.8672284696
 N         -3.2096649503        0.5073857101        1.1908286089
 S         -3.9953400706       -0.9751548998        1.2247515785
 O         -4.6732580709       -1.0090550599        2.5020878283
 O         -3.0908618807       -2.0662114699        0.9456246885
 C         -5.2097690003       -0.8340257495       -0.0707001918
 C         -6.0690672401        0.2470035107       -0.0421826118
 C         -7.0239020698        0.3694172810       -1.0387740220
 C         -7.1056655098       -0.5874373989       -2.0395479122
 C         -6.2385054499       -1.6690616290       -2.0519905421
 C         -5.2801344602       -1.7967349293       -1.0583880519
 H         -4.5817241203       -2.6182543794       -1.0308952919
 H         -6.3036211999       -2.4123572989       -2.8303102022
 H         -7.8495023496       -0.4897544287       -2.8144291123
 H         -7.6998990997        1.2092318711       -1.0324224920
 H         -5.9752741602        0.9662479405        0.7541127183
 H         -3.0940076805        0.8750754799        2.1241432690
 H         -2.9618467399       -0.3429164296       -1.2920333112
 H         -0.9661725295       -0.0695540797       -2.7216243307
 H          1.0359802904        1.0865725799       -1.8517660301
 H          1.2013857398        2.3847634393        1.6736715802
 C          1.7422339104        3.4892468395       -0.0656621096
 C          1.0068864808        4.0344300398       -1.2501818797
 C          0.8209374505        4.6628398896        0.0955515004
 H          1.2477993606        5.6365716995        0.2822840506
 H         -0.1164660296        4.4869377497        0.6023226902
 H          1.5845724110        4.5607202398       -1.9946243794
 H          0.1908871208        3.4594146200       -1.6581399999
 H          2.8048076804        3.7013356293       -0.0252466393
