  62
        -98.93813344
 C          1.9765123288        1.3911239800        0.3030972911
 C          2.6235980871        0.7188340224       -0.7605792895
 C          3.7765004059       -0.1214516402       -0.3915911938
 C          4.1494854810       -0.2060207268        0.8968205550
 C          5.3106754422       -0.9664127058        1.4866443873
 C          5.5475252661       -2.3970407981        0.9813610859
 C          4.2806027489       -3.1613831452        0.5696352583
 H          3.3914550716       -2.6257154122        0.9072529427
 H          4.2785880764       -4.1358014705        1.0619572110
 C          4.1900352534       -3.3994737447       -0.9398790297
 H          3.5036259080       -4.2297223699       -1.1237233581
 H          5.1738507633       -3.7025574184       -1.3048233833
 C          3.6940991692       -2.2128169356       -1.7659273726
 H          2.6284601305       -2.0499242219       -1.5801845770
 H          3.7956583546       -2.4737529569       -2.8221045988
 C          4.4201159389       -0.8808470008       -1.5154374644
 H          4.2986085939       -0.2610198405       -2.4078389061
 H          5.4820102604       -1.0372112409       -1.3416957330
 H          6.0517278375       -2.9362927817        1.7850197108
 H          6.2362589981       -2.3762113512        0.1379692411
 H          5.1210412564       -0.9848698006        2.5625451609
 H          6.2185263946       -0.3770056399        1.3296940111
 O          3.4907785148        0.4555986689        1.8907807608
 C          2.3891003990        1.2517385869        1.6261256539
 O          1.8683443660        1.7648739704        2.6382203761
 O          2.2638215681        0.8169057143       -1.9616389650
 C          0.7697931667        2.2673483254        0.0212415367
 C         -0.3166207839        1.4529140413       -0.6396449051
 C         -1.0423864660        1.8938700400       -1.7379631281
 C         -2.0227261483        1.0926684806       -2.2989895587
 C         -2.3073795399       -0.1543607291       -1.7754810494
 C         -1.6028416840       -0.5955813288       -0.6618055029
 C         -0.6254395976        0.2101104493       -0.0992724063
 H         -0.0764741498       -0.1373920614        0.7680069331
 N         -1.8974147492       -1.8530980351       -0.1081457851
 S         -3.5086170788       -2.2632386387        0.0858615498
 O         -3.5327320206       -3.1860942183        1.1990861515
 O         -4.0337278000       -2.7670841062       -1.1586449154
 C         -4.3334754604       -0.7401995422        0.5145455226
 C         -3.9244481063       -0.0773835126        1.6548361312
 C         -4.5309979343        1.1230402628        1.9863902781
 C         -5.5318615536        1.6375107318        1.1761551047
 C         -5.9354517621        0.9571490424        0.0380416279
 C         -5.3302670444       -0.2428243030       -0.2998259021
 H         -5.6103557396       -0.8029071512       -1.1770368452
 H         -6.7154705943        1.3585448786       -0.5884685119
 H         -5.9994515433        2.5739863920        1.4361044753
 H         -4.2173576266        1.6527962699        2.8717170372
 H         -3.1462750142       -0.5047402198        2.2673361347
 H         -1.3593136433       -2.0771650030        0.7154561178
 H         -3.0524309367       -0.7980790834       -2.2140564065
 H         -2.5694285054        1.4429268194       -3.1609227723
 H         -0.8334521991        2.8612336973       -2.1635360843
 H          0.3984350561        2.5973025366        1.0027272597
 C          1.1836293408        3.4858720114       -0.7773708828
 C          0.4389742017        4.7773505252       -0.6269169650
 C          1.8181773188        4.6369523131       -0.0583193717
 H          2.6325127043        5.1591368416       -0.5377904375
 H          1.9268728550        4.5518362765        1.0134433827
 H          0.3078652480        5.4018067094       -1.4977083095
 H         -0.3915555948        4.7988970079        0.0621683978
 H          1.5767741893        3.2282624441       -1.7539590181
