  62
        -98.94311326
 C         -2.0636969040       -1.3728374813        0.3339324338
 C         -2.0592769732       -0.2321978167        1.1795074907
 C         -3.0449777432        0.8086039032        0.8751566753
 C         -3.8972653617        0.6355648243       -0.1512879286
 C         -4.9927870001        1.5809448712       -0.5638558772
 C         -4.5251520486        2.7226090303       -1.4765734727
 C         -3.6886824455        3.8018826734       -0.7885956553
 H         -3.6154844280        4.6410876272       -1.4832287655
 H         -4.2156919455        4.1583425085        0.0969770935
 C         -2.2717624517        3.3531872552       -0.4037453770
 H         -2.0162565528        2.4430356467       -0.9511598027
 H         -1.5566065512        4.1208741458       -0.7058195226
 C         -2.0673357449        3.1026896911        1.0904662793
 H         -1.0456904184        2.7444869998        1.2409193413
 H         -2.1841384882        4.0396966945        1.6393281633
 C         -3.0234257069        2.0646860951        1.6924365677
 H         -4.0273840391        2.4800474236        1.7787147585
 H         -2.6641585816        1.8055356842        2.6912945324
 H         -3.9584979401        2.2956623895       -2.3072975754
 H         -5.4188702913        3.1939689383       -1.8920662123
 H         -5.4708876590        1.9958704846        0.3240664687
 H         -5.7284725345        0.9847164669       -1.1080826982
 O         -3.8676140042       -0.4670819324       -0.9425343778
 C         -2.9339181434       -1.4777472002       -0.7517162947
 O         -3.0063574657       -2.3828023306       -1.6053144955
 O         -1.2703617295       -0.0995172537        2.1534318306
 C         -1.0370504297       -2.4476710826        0.6507505151
 C          0.2166694512       -2.2091381455       -0.1560448232
 C          0.2328429137       -2.3645130756       -1.5379897260
 C          1.3885355548       -2.1124863149       -2.2550120385
 C          2.5470495710       -1.7057787730       -1.6152148995
 C          2.5376460343       -1.5362244027       -0.2367700190
 C          1.3753198396       -1.7895286755        0.4812866751
 H          1.3664273535       -1.6445400543        1.5530486247
 N          3.7096584637       -1.1410024887        0.4341501107
 S          4.5488127513        0.2218705774       -0.0477190788
 O          4.9999583647        0.0474562098       -1.4045106987
 O          5.5740811099        0.4036619202        0.9531092136
 C          3.3776472227        1.5638170519        0.0399392033
 C          2.4885995637        1.7547168203       -0.9991383484
 C          1.5631580277        2.7818338787       -0.9054921805
 C          1.5437797417        3.5960817630        0.2164560500
 C          2.4393275494        3.3873217275        1.2538300927
 C          3.3628120124        2.3583755394        1.1690521148
 H          4.0822202033        2.1654424644        1.9486224570
 H          2.4183392235        4.0206494062        2.1261115369
 H          0.8271442299        4.3994407113        0.2826109656
 H          0.8601955996        2.9424023493       -1.7073486092
 H          2.5374484510        1.1092926886       -1.8609764199
 H          3.6146603334       -1.1406548994        1.4396899697
 H          3.4526476324       -1.5066592538       -2.1651231037
 H          1.3899263155       -2.2378073930       -3.3275072235
 H         -0.6717197616       -2.6661337909       -2.0437387838
 H         -0.7832371640       -2.2955910123        1.7087693409
 C         -1.5460227050       -3.8643461088        0.4841219690
 C         -0.8375562907       -4.9740431216        1.1994880427
 C         -2.2034554594       -4.5466971441        1.6443605517
 H         -3.0403010523       -5.2002214754        1.4492519840
 H         -2.2892760625       -3.9936566779        2.5685246112
 H         -0.7326336933       -5.9243502780        0.6992153566
 H          0.0036880967       -4.7112832763        1.8231901227
 H         -1.9428046272       -4.0728100746       -0.5000848401
