  62
        -98.94045723
 C         -1.7951259031       -0.7115429141        0.8890727555
 C         -2.0582748613       -0.3014175573       -0.4415734192
 C         -3.4615658058       -0.3968468570       -0.8695908978
 C         -4.3947272512       -0.8693609180       -0.0246744086
 C         -5.8576440453       -1.0484250767       -0.3273486176
 C         -6.6930758755        0.2246442995       -0.1350158184
 C         -6.4840696491        1.3058538931       -1.1961172105
 H         -6.6076225983        0.8690059286       -2.1875503667
 H         -7.2791179615        2.0423571063       -1.0633971341
 C         -5.1287915822        2.0222540506       -1.1122528166
 H         -5.2808881454        3.1005230771       -1.1989873978
 H         -4.6810866845        1.8416341588       -0.1321327499
 C         -4.1283294304        1.6175414849       -2.1951698817
 H         -4.5076846809        1.9182514717       -3.1743405308
 H         -3.1933518640        2.1546509393       -2.0155391752
 C         -3.8110557508        0.1168565539       -2.2335534639
 H         -4.6543975736       -0.4362977974       -2.6462567948
 H         -2.9420243512       -0.0325535575       -2.8787131764
 H         -7.7448918684       -0.0702955995       -0.1493343651
 H         -6.4778207589        0.6374932290        0.8534076175
 H         -5.9795802131       -1.4149722672       -1.3468908561
 H         -6.2273578458       -1.8096380357        0.3631155954
 O         -4.0990062997       -1.2643667830        1.2427671216
 C         -2.8094737153       -1.1591124371        1.7391314867
 O         -2.6951081544       -1.4897103391        2.9366523351
 O         -1.1830768053        0.1218974008       -1.2384874005
 C         -0.4035118061       -0.6147709256        1.4895101804
 C          0.2293151611        0.7061137302        1.1243881106
 C         -0.4647871633        1.8813312387        1.4045391978
 C          0.0699762425        3.1128535546        1.0843948978
 C          1.3251298665        3.2034348322        0.5069885905
 C          2.0324528964        2.0399733481        0.2383820103
 C          1.4800701065        0.8020163325        0.5376104170
 H          2.0369503972       -0.0857293211        0.2917125334
 N          3.3096121311        2.0846243733       -0.3431846550
 S          4.5120587940        1.1066493367        0.2898285024
 O          4.3329412039        0.8992606714        1.7084837506
 O          5.7504274229        1.7433150640       -0.1069187603
 C          4.3624173360       -0.4395817485       -0.5792284004
 C          4.4219467225       -1.6215637729        0.1321914205
 C          4.3491945232       -2.8229976549       -0.5551762127
 C          4.2203336640       -2.8205908690       -1.9358132095
 C          4.1626922502       -1.6245605806       -2.6353201140
 C          4.2371089013       -0.4202908654       -1.9540662014
 H          4.1962864437        0.5273522506       -2.4643019093
 H          4.0587757375       -1.6278058108       -3.7083513672
 H          4.1614217282       -3.7566972997       -2.4685606441
 H          4.3911194869       -3.7538641529       -0.0120098224
 H          4.5137634456       -1.5763951518        1.2059021225
 H          3.6530985099        3.0134391534       -0.5403916087
 H          1.7492786280        4.1659095985        0.2630516638
 H         -0.4885976649        4.0129173687        1.2945394892
 H         -1.4412468780        1.8127890377        1.8661605032
 H         -0.5640916059       -0.6128443389        2.5812264972
 C          0.4894222152       -1.8091674928        1.1855480336
 C         -0.0922380816       -3.1560894608        0.8792419551
 C          0.6070344672       -2.3806271476       -0.1944812559
 H          1.5767622294       -2.7215077198       -0.5265899109
 H          0.0144831080       -1.9235340016       -0.9705551047
 H          0.3960271018       -4.0272623504        1.2893454069
 H         -1.1686284707       -3.2396894470        0.8365107930
 H          1.3910541772       -1.8036801742        1.7915372509
