  62
        -98.94650488
 C         -1.1856343172       -1.1387972377        0.5694027720
 C         -1.6668504336       -0.6123921073       -0.6544640868
 C         -2.4655286428        0.6161416595       -0.5430182947
 C         -2.5903958732        1.2304582316        0.6463649815
 C         -3.3503304165        2.5011447044        0.9136846611
 C         -4.8534832913        2.2891660835        1.1428717985
 C         -5.6589444031        1.9281447355       -0.1060904963
 H         -6.7145213681        2.0241338763        0.1560148601
 H         -5.4532612480        2.6543211036       -0.8930723489
 C         -5.4091994410        0.5079751577       -0.6332333301
 H         -4.9302462883       -0.0904444770        0.1451700552
 H         -6.3653917092        0.0306467267       -0.8592560358
 C         -4.5586594061        0.4425191005       -1.9020952415
 H         -4.4107150100       -0.6088811547       -2.1609762207
 H         -5.0938579920        0.9194871586       -2.7261342962
 C         -3.1784382123        1.0998841053       -1.7696266019
 H         -3.2862744068        2.1840359756       -1.7520036024
 H         -2.5776539419        0.8163158440       -2.6367271152
 H         -4.9857108135        1.5112738641        1.8985053344
 H         -5.2552743341        3.2194289614        1.5511896197
 H         -3.2042761129        3.2014020055        0.0909813577
 H         -2.9244552786        2.9345826565        1.8210898771
 O         -1.9973449516        0.7605285911        1.7763900359
 C         -1.3166842279       -0.4436963617        1.7724791059
 O         -0.8649159913       -0.7798251968        2.8879509202
 O         -1.4584028638       -1.1333522985       -1.7786306470
 C         -0.4264670914       -2.4568828006        0.6133441232
 C          0.9485919171       -2.2250829523        0.0371061667
 C          1.3792726791       -2.7300906702       -1.1814747874
 C          2.6396223965       -2.4146661382       -1.6627718111
 C          3.4925867205       -1.5975340709       -0.9432459942
 C          3.0690794592       -1.0910219913        0.2790353221
 C          1.8092471096       -1.4057274201        0.7589275329
 H          1.4752979222       -1.0030244711        1.7071525574
 N          3.9220521647       -0.2327417166        1.0124766312
 S          4.2113384578        1.2451303779        0.2762355438
 O          5.0761290530        1.0378689823       -0.8566810478
 O          4.7179454238        2.1100362441        1.3171830936
 C          2.6089209581        1.8032665800       -0.2733966597
 C          1.8070022311        2.4894059891        0.6164378648
 C          0.5445040857        2.8884259734        0.2102544598
 C          0.1045704783        2.5843942991       -1.0685713132
 C          0.9147289362        1.8796976056       -1.9444170695
 C          2.1808216277        1.4836388601       -1.5460311791
 H          2.8437654776        0.9427897259       -2.2010625628
 H          0.5605898462        1.6326167671       -2.9320621440
 H         -0.8762321622        2.8980117263       -1.3863516167
 H         -0.0932996253        3.4291258850        0.8913066673
 H          2.1880325901        2.7133375303        1.6003626203
 H          3.5877290450       -0.0683149515        1.9524185969
 H          4.4695614644       -1.3292484939       -1.3116837036
 H          2.9609626728       -2.8102076199       -2.6142569006
 H          0.7237633632       -3.3577312745       -1.7616877777
 H         -0.3032269183       -2.6962159680        1.6790380761
 C         -1.1970727498       -3.5767281811       -0.0500807322
 C         -0.8322895485       -4.9981787322        0.2517140598
 C         -2.1116738476       -4.4241285495        0.7801860757
 H         -3.0438901180       -4.7538250840        0.3465753061
 H         -2.1764093505       -4.2056717752        1.8365181095
 H         -0.8862338661       -5.7257332731       -0.5435847321
 H         -0.0267811991       -5.1690651373        0.9500267267
 H         -1.5210067230       -3.3360012475       -1.0545549338
