  62
        -98.94089219
 C         -2.6534660358       -1.1264176445       -0.4037016422
 C         -2.1181729913        0.0293138259       -1.0228157209
 C         -2.9629502267        1.2322835772       -0.9729808331
 C         -4.1662403887        1.1732794141       -0.3748340490
 C         -5.1021904168        2.3345261950       -0.2094433717
 C         -4.8551841384        3.0615932063        1.1197190100
 C         -3.3857558007        3.3953346145        1.3788467762
 H         -3.3369533207        3.9345163729        2.3275407519
 H         -2.8237261074        2.4672830661        1.5109472924
 C         -2.7216240070        4.2357899009        0.2793331819
 H         -3.4862785622        4.7154734686       -0.3329494821
 H         -2.1377269161        5.0289187431        0.7510749705
 C         -1.7636332467        3.4570589410       -0.6243621120
 H         -1.0499465326        2.9008469188       -0.0096966072
 H         -1.1919438411        4.1794226235       -1.2134286541
 C         -2.4213425512        2.4815554449       -1.6089002905
 H         -3.2017396326        2.9978366507       -2.1715288308
 H         -1.6512870323        2.1500765542       -2.3114873775
 H         -5.4444104589        3.9803287437        1.1255579070
 H         -5.2091476022        2.4251181735        1.9339351792
 H         -4.9701798863        3.0226241271       -1.0419986866
 H         -6.1253691582        1.9553261612       -0.2208048543
 O         -4.6522458557        0.0421405725        0.1968664114
 C         -3.9046236134       -1.1220067531        0.2179051588
 O         -4.4565107678       -2.0749037226        0.8036396254
 H          0.7207567249       -1.7635141486       -0.9892571508
 C          0.5654208520       -1.8304393040        0.0756001419
 C         -0.6791407014       -2.1877478838        0.5684089453
 C         -0.8617180577       -2.2371993582        1.9477892364
 C          0.1766906795       -1.9345573710        2.8084873196
 C          1.4153218846       -1.5649003219        2.3129513336
 C          1.6032492874       -1.5039624466        0.9393060180
 N          2.8555462592       -1.1155215313        0.4220603893
 S          3.5440456732        0.2659285622        1.1136697281
 O          4.2343244254       -0.1285205219        2.3173473978
 O          2.5469384050        1.3008874264        1.2731037632
 C          4.7268738522        0.7194130819       -0.1391760302
 C          4.3244481952        1.5530292551       -1.1655896307
 C          5.2348543820        1.8800549194       -2.1581805075
 C          6.5229341396        1.3679064628       -2.1092669465
 C          6.9110470987        0.5315779087       -1.0732459683
 C          6.0061249519        0.2010175927       -0.0769507029
 H          6.2627165892       -0.4384042885        0.7513785525
 H          7.9137418737        0.1372295104       -1.0386054369
 H          7.2285501571        1.6247514368       -2.8835157515
 H          4.9356345371        2.5309221767       -2.9640210922
 H          3.3148820884        1.9336928766       -1.1608256855
 H          2.8168701869       -1.0142767570       -0.5840233011
 H          2.2282227952       -1.3018643622        2.9707233462
 H          0.0202844528       -1.9770834501        3.8762111174
 H         -1.8372073139       -2.4978177329        2.3357541495
 C         -1.8631166146       -2.4248673374       -0.3371151867
 H         -2.5235381757       -3.1550272830        0.1486972031
 C         -1.4981209964       -2.9384202239       -1.7138294569
 C         -1.0279980705       -4.3528547147       -1.8664500014
 C         -2.3813003639       -3.9540153143       -2.3713424043
 H         -2.5360351246       -3.8873132820       -3.4378067458
 H         -3.2513689472       -4.2877739819       -1.8249087637
 H         -0.2526465756       -4.5649174556       -2.5865437668
 H         -0.9779945678       -4.9584150344       -0.9741617108
 H         -1.0569538989       -2.1836058170       -2.3522204006
 O         -0.9992459113        0.0674367918       -1.5994474399
