  62
        -98.93967781
 C          1.7943480298        0.4739877484        0.8492493806
 C          2.7940410799        1.1987646694        0.1531397519
 C          4.1763099399        0.7263211089        0.3424164914
 C          4.4165250496       -0.3330086323        1.1343801298
 C          5.7665494195       -0.9466976328        1.3652118390
 C          6.0500859396       -2.0660382113        0.3538081374
 C          5.7811843498       -1.6692236091       -1.0978203221
 H          6.0464777798       -2.5247689081       -1.7227972133
 H          4.7100095299       -1.4975427287       -1.2270630319
 C          6.5544080100       -0.4303908684       -1.5710972601
 H          6.9709604601       -0.6347358970       -2.5596948703
 H          7.3925928299       -0.2384248995       -0.9002617796
 C          5.7060653802        0.8362333419       -1.6979672782
 H          6.2903395603        1.5830046726       -2.2421404670
 H          4.8147535602        0.6211210429       -2.2924370687
 C          5.2616949801        1.4772191899       -0.3772027973
 H          6.1275655700        1.6190861688        0.2725661230
 H          4.8412806202        2.4597083303       -0.6108133159
 H          5.4160097394       -2.9216952816        0.5978747360
 H          7.0918369295       -2.3735274416        0.4624654471
 H          6.5287631396       -0.1734910628        1.2901906803
 H          5.7852409894       -1.3661684243        2.3725947284
 O          3.4326464495       -1.0022218032        1.7891020786
 C          2.1083625795       -0.6211933429        1.6587833090
 O          1.3102452394       -1.3209881038        2.3157517278
 H         -1.8463869804       -0.8085379511        0.7876011382
 C         -1.4543763202       -0.6551059096       -0.2067175815
 C         -0.3349106801        0.1419387705       -0.3972167402
 C          0.1759946501        0.2867658824       -1.6843618599
 C         -0.4219153398       -0.3571481659       -2.7512468509
 C         -1.5418764599       -1.1474917161       -2.5597469823
 C         -2.0573176801       -1.3022992979       -1.2781575726
 N         -3.1797664502       -2.1093043282       -1.0602245840
 S         -4.2555736404       -1.8052649299        0.1725548163
 O         -3.7052111206       -2.2086029919        1.4420977658
 O         -5.4634111804       -2.4905705792       -0.2361951549
 C         -4.5422035502       -0.0432462399        0.1677649490
 C         -4.5937949903        0.6261947483        1.3735897100
 C         -4.8609546701        1.9865442083        1.3776311420
 C         -5.0648087599        2.6530104602        0.1794758530
 C         -5.0080140098        1.9672839120       -1.0240166780
 C         -4.7500710799        0.6059458720       -1.0334190401
 H         -4.7093675699        0.0499401334       -1.9555793309
 H         -5.1631631896        2.4887345534       -1.9545823473
 H         -5.2647990398        3.7125365102        0.1843867546
 H         -4.9018692002        2.5197891669        2.3138346528
 H         -4.4146764005        0.0721518869        2.2815084492
 H         -3.6246927802       -2.4763294569       -1.8875659746
 H         -2.0068956499       -1.6526080547       -3.3925451831
 H         -0.0152851097       -0.2394856344       -3.7443075307
 H          1.0439613202        0.9100878726       -1.8348179888
 C          0.3159248298        0.8239827487        0.7785143910
 H         -0.1239827104        0.3916568873        1.6915382903
 C          0.0585898600        2.3253025086        0.8174065832
 C         -0.5520887298        3.0937065604       -0.3125344657
 C         -1.3503528400        2.8284108686        0.9255650438
 H         -1.5584415900        3.6463717876        1.5981013250
 H         -2.1401764001        2.0945324388        0.8632813926
 H         -0.1818960097        4.0915898007       -0.4903988641
 H         -0.8156322297        2.5603853518       -1.2116261865
 H          0.8076323599        2.8481345177        1.4026999741
 O          2.5688475802        2.1877365605       -0.5890364966
