  62
        -98.94307927
 C          1.8580308401        0.7913367111        0.7342471400
 C          2.8287162702        1.1977335514       -0.2141806797
 C          4.1708600103        0.6176340416       -0.0475934895
 C          4.4063051802       -0.2373127985        0.9630217504
 C          5.7063964603       -0.9468690382        1.2045576006
 C          5.7397926507       -2.3043231482        0.4882905504
 C          5.3222653510       -2.2389640181       -0.9809874396
 H          4.2662762810       -1.9644766382       -1.0395202098
 H          5.4139083013       -3.2477651980       -1.3895348297
 C          6.1475141010       -1.2647853778       -1.8333425494
 H          6.4059352613       -1.7557782776       -2.7739361294
 H          7.0825148209       -1.0282019177       -1.3241837091
 C          5.4230007908        0.0337326821       -2.1924543993
 H          4.4438257710       -0.1991574780       -2.6182868596
 H          6.0038937809        0.5439683623       -2.9653049892
 C          5.2234984804        1.0258117619       -1.0399191293
 H          4.8786578703        1.9700450219       -1.4709620592
 H          6.1766022503        1.2044332620       -0.5383917591
 H          5.0610761807       -2.9859195083        1.0066099302
 H          6.7505866808       -2.7094492780        0.5638270206
 H          6.5262304603       -0.3210217280        0.8573985808
 H          5.8148414701       -1.1098979383        2.2781940306
 O          3.4552762501       -0.5919550087        1.8648930702
 C          2.1668476401       -0.0961852490        1.7695784500
 O          1.3971400700       -0.5062432492        2.6626976698
 H         -1.3362673197       -0.7392426895        1.0528674992
 C         -1.2153979095       -0.4915847294        0.0083752893
 C         -0.3484059996        0.5251171508       -0.3688544405
 C         -0.1883199594        0.7990472610       -1.7236937704
 C         -0.8793808491        0.0672040110       -2.6715121206
 C         -1.7552083790       -0.9345338292       -2.2911218909
 C         -1.9204005192       -1.2186120794       -0.9412034110
 N         -2.8016389391       -2.2331961996       -0.5227754113
 S         -3.9487101194       -1.8633188700        0.6391502585
 O         -3.3250503597       -1.7001871100        1.9267255087
 O         -4.9318012892       -2.9186913801        0.5311843482
 C         -4.6433803296       -0.3191363800        0.0800894286
 C         -4.1474090099        0.8699422200        0.5745214888
 C         -4.6363278200        2.0625497800        0.0650321789
 C         -5.6070493898        2.0447589299       -0.9243867713
 C         -6.1001119895        0.8416795799       -1.4065723116
 C         -5.6108578194       -0.3534024701       -0.9053543716
 H         -5.9715655291       -1.3104341201       -1.2461504118
 H         -6.8590950793        0.8319873798       -2.1721079717
 H         -5.9825517699        2.9754641999       -1.3192128513
 H         -4.2541614002        2.9988570900        0.4394146390
 H         -3.3969828200        0.8394080901        1.3478780190
 H         -3.2321710688       -2.7387260496       -1.2842557914
 H         -2.2985049387       -1.5014778592       -3.0319575611
 H         -0.7398802689        0.2837401311       -3.7197183406
 H          0.5066072005        1.5655957012       -2.0271123702
 C          0.4157661600        1.2767914008        0.6952966798
 H         -0.0120094401        0.9986645007        1.6683092997
 C          0.3014340598        2.7794458208        0.5345316499
 C         -0.9611728304        3.4602458406        0.9652050398
 C          0.2974524194        3.6435222107        1.7579071600
 H          0.8026487692        4.5967850208        1.7168687703
 H          0.3730884993        3.1519086706        2.7175463100
 H         -1.7373487204        2.8435056104        1.3925168095
 H         -1.3246702505        4.2898761006        0.3789648798
 H          0.8124325799        3.1639347310       -0.3373422099
 O          2.6124081703        2.0037445815       -1.1559648397
