  62
        -98.93887984
 C          2.0277615504        1.0837426891       -0.0853807609
 C          2.7224749905        0.4735462992        0.9902682591
 C          3.3935338702       -0.8092995610        0.7223324892
 C          3.3152357599       -1.3443157612       -0.5100617307
 C          3.8349194696       -2.6516464913       -1.0712660706
 C          4.8172046896       -3.5057462314       -0.2747513706
 C          6.2139367197       -2.9009288616       -0.1310071909
 H          6.7897816797       -3.5263112016        0.5543360292
 H          6.7062473796       -2.9347052719       -1.1061299109
 C          6.2588113900       -1.4549334316        0.3561119489
 H          5.7433099701       -0.8111164516       -0.3593140711
 H          7.3059732601       -1.1413541718        0.3761709087
 C          5.6766746103       -1.2162336312        1.7473646890
 H          5.9020955705       -0.1835952312        2.0266431188
 H          6.1674112003       -1.8725008412        2.4686465890
 C          4.1558778403       -1.4073536710        1.8701896692
 H          3.8985115801       -2.4563264209        1.9964352194
 H          3.8201651105       -0.8781245108        2.7667321292
 H          4.9199858393       -4.4497011315       -0.8168283804
 H          4.3990676697       -3.7468203812        0.6981325295
 H          4.2763224995       -2.4077954216       -2.0431178907
 H          2.9422402495       -3.2515719812       -1.2823001403
 O          2.6389888099       -0.7198020112       -1.5169182907
 C          1.9778089202        0.4838007390       -1.3417167308
 O          1.4124152101        0.8881079889       -2.3794704407
 O          2.7759164407        0.9834084993        2.1411696391
 C          1.3015536007        2.3842184793        0.2229937991
 C         -0.1547574693        2.0866005696        0.4885254193
 C         -0.6985209791        2.2340168999        1.7591439794
 C         -2.0174040591        1.8944739602        2.0065097996
 C         -2.8150468994        1.3855584802        0.9967516298
 C         -2.2768191496        1.2274998099       -0.2730521603
 C         -0.9654237995        1.5945492896       -0.5250828805
 H         -0.5534863997        1.4508953994       -1.5132512505
 N         -3.0696648398        0.6458746299       -1.2947260401
 S         -3.2360989601       -1.0241697900       -1.1101674098
 O         -2.0631705901       -1.6073473002       -0.4950262799
 O         -3.5954289204       -1.5295017202       -2.4174142797
 C         -4.6331584100       -1.1742313296       -0.0173849296
 C         -5.8774958600       -0.8110154795       -0.4948447495
 C         -6.9718976499       -0.9085012791        0.3495708507
 C         -6.8039386298       -1.3643221090        1.6488571108
 C         -5.5482479498       -1.7270242291        2.1119550506
 C         -4.4491514799       -1.6319478695        1.2724523405
 H         -3.4527470899       -1.8974403096        1.5879548704
 H         -5.4191057697       -2.0808859390        3.1221435707
 H         -7.6568263497       -1.4382972887        2.3049115509
 H         -7.9500426799       -0.6287176690       -0.0068083792
 H         -5.9609621800       -0.4685139096       -1.5127105395
 H         -2.6833804199        0.8174750697       -2.2143164402
 H         -3.8398249194        1.1081496404        1.1827291900
 H         -2.4254832790        2.0173521904        2.9979461596
 H         -0.0706811589        2.5964244999        2.5600396092
 H          1.7463126509        2.7477058094        1.1589191489
 C          1.4742103208        3.4518391591       -0.8378855511
 C          1.2308669611        4.8839396792       -0.4698996813
 C          2.6254971010        4.4051239489       -0.7370035014
 H          3.1157286809        4.7162800187       -1.6472118616
 H          3.2959855011        4.2916035989        0.1023149485
 H          0.7602234511        5.5284339492       -1.1961833513
 H          0.9561917313        5.0967481394        0.5520153687
 H          1.1853790506        3.1288895790       -1.8294604810
