  62
        -98.93452953
 C         -2.2745525524       -1.1099011604        0.1120105810
 C         -3.5258459353       -1.0447324708        0.7796813269
 C         -4.5252710713       -0.1216184885        0.2232355448
 C         -4.2016869525        0.6184112460       -0.8521279839
 C         -5.0741000948        1.6625920621       -1.4889398207
 C         -5.0517965305        2.9535395913       -0.6457669365
 C         -6.3931709676        3.3118469629       -0.0053440938
 H         -7.0527968349        3.7243477770       -0.7717062529
 H         -6.2050815504        4.1002656987        0.7265363981
 C         -7.1346927607        2.1605263967        0.6807886515
 H         -7.6448029216        1.5540058311       -0.0690329474
 H         -7.9139237910        2.6093510102        1.3003960542
 C         -6.2777129485        1.2388316370        1.5580576476
 H         -6.8563085656        0.9820987793        2.4476965146
 H         -5.3820896639        1.7575444231        1.9007277988
 C         -5.8732071608       -0.0881413497        0.8891399856
 H         -6.6424950999       -0.3840984405        0.1704295506
 H         -5.8245457481       -0.8651699186        1.6576644247
 H         -4.7366916728        3.7904519054       -1.2709477381
 H         -4.2928481086        2.8415434945        0.1316500147
 H         -6.0897404799        1.2848486344       -1.5845675672
 H         -4.6764305989        1.8535577978       -2.4859854062
 O         -2.9848921840        0.5520921222       -1.4490304078
 C         -1.9891318541       -0.3049504919       -0.9921996564
 O         -0.9392752318       -0.2420156189       -1.6590389308
 O         -3.7956585372       -1.7335125826        1.7994471565
 C         -1.2342556220       -2.0547520077        0.6907742868
 C          0.0653279649       -1.3222878900        0.9005114877
 C          0.2175875271       -0.5037489930        2.0156454025
 C          1.3817437671        0.2159008229        2.2080676511
 C          2.4125323218        0.1441214406        1.2871309648
 C          2.2603233438       -0.6516886449        0.1601567446
 C          1.1011478292       -1.3961314195       -0.0163197559
 H          0.9879070647       -2.0035164135       -0.9007036006
 N          3.2929432993       -0.7245830296       -0.7884952954
 S          4.0995841484        0.6775191357       -1.2312633283
 O          3.2706123296        1.8535887982       -1.1065077100
 O          4.6343022544        0.4019244508       -2.5474047221
 C          5.4512880312        0.7586487853       -0.0717113728
 C          6.2526287890       -0.3567076943        0.0756923512
 C          7.3141262611       -0.3059281766        0.9648336902
 C          7.5583044447        0.8537943582        1.6853082153
 C          6.7477112039        1.9666545761        1.5232515404
 C          5.6833250010        1.9216354968        0.6360685855
 H          5.0234637461        2.7607719127        0.4814147152
 H          6.9389129133        2.8680080316        2.0832102735
 H          8.3849337020        0.8906062914        2.3771439040
 H          7.9466776548       -1.1694411838        1.0933707616
 H          6.0313536616       -1.2367658703       -0.5045028404
 H          3.0495285731       -1.2684615373       -1.6039207438
 H          3.3164126634        0.7151731449        1.4222951968
 H          1.4884913262        0.8429624662        3.0802473294
 H         -0.5944359488       -0.4314267865        2.7260963887
 H         -1.6371172125       -2.3241752011        1.6803061630
 C         -1.0621764617       -3.3598988587       -0.0723346762
 C         -2.2540298583       -4.0689956306       -0.6406671979
 C         -1.2264055225       -3.4783537580       -1.5566670201
 H         -0.5689149558       -4.1513091954       -2.0883052218
 H         -1.4791890989       -2.5898517646       -2.1136664398
 H         -2.3092427414       -5.1432146398       -0.5500508986
 H         -3.2100656230       -3.5722957793       -0.5608053130
 H         -0.2982016521       -3.9860667045        0.3789443034
