  62
        -98.93831197
 C         -1.3177944302       -1.5552088097       -0.5950280306
 C         -2.5295286302       -1.5569620500        0.1382593495
 C         -3.5474899603       -0.5596967900       -0.2319350302
 C         -3.2825988804        0.3092515303       -1.2250018800
 C         -4.1177726405        1.4147680704       -1.8372743896
 C         -5.3976300105        1.8922672401       -1.1570500795
 C         -5.1784106806        2.6338971898        0.1614421408
 H         -4.7112195506        3.5977538499       -0.0568720690
 H         -6.1542673406        2.8306654095        0.6109583108
 C         -4.2957512905        1.9202154495        1.1827368405
 H         -3.2871936905        1.8007478097        0.7793295505
 H         -4.2106397605        2.5673360593        2.0603861607
 C         -4.8100121904        0.5618586393        1.6557163001
 H         -4.1708049603        0.2392405491        2.4822088600
 H         -5.8266242604        0.6680484791        2.0397081602
 C         -4.7983535703       -0.5553371903        0.5989037698
 H         -4.8188150002       -1.5151594405        1.1235630395
 H         -5.6811215003       -0.5095141402       -0.0344483702
 H         -6.0831032905        1.0612016800       -1.0195739797
 H         -5.8779238806        2.5885219903       -1.8499798192
 H         -3.4378833406        2.2647250905       -1.9587121594
 H         -4.3678083005        1.0731753807       -2.8479920397
 O         -2.1079017404        0.2667664806       -1.9145465400
 C         -1.0902025103       -0.6280199694       -1.6114271903
 O         -0.0815439004       -0.4878122491       -2.3264619102
 H          0.6094941296       -0.0242356198        0.1861999699
 C          0.9276102297       -0.6707364000        0.9869543297
 C          0.5583063198       -2.0077792700        0.9771850993
 C          0.9519687999       -2.8171546503        2.0367894390
 C          1.7049989299       -2.2959416106        3.0742120492
 C          2.0691265698       -0.9618888205        3.0809619396
 C          1.6643309997       -0.1379887103        2.0346341198
 N          1.9674296696        1.2252153498        2.0533394802
 S          1.9657720295        2.2269488402        0.7221358405
 O          2.4674117494        3.4798793900        1.2474410609
 O          0.6568584995        2.2731371202        0.1210292106
 C          3.1861396895        1.5458188806       -0.3849176597
 C          4.5109724195        1.7175521606       -0.0262840496
 C          5.5031255595        1.2022463209       -0.8421476898
 C          5.1561230996        0.5265942812       -2.0031699600
 C          3.8245962696        0.3664663112       -2.3494494200
 C          2.8234019996        0.8756836609       -1.5343379799
 H          1.7822175496        0.7455770809       -1.7872284599
 H          3.5464980496       -0.1559072685       -3.2506845202
 H          5.9265144196        0.1250389115       -2.6423851701
 H          6.5396118295        1.3292988309       -0.5742410598
 H          4.7370180995        2.2684138103        0.8721565805
 H          2.5910253596        1.5338275696        2.7822696003
 H          2.6433676697       -0.5517720407        3.8972609397
 H          2.0058749199       -2.9334370008        3.8915705390
 H          0.6452256600       -3.8524554104        2.0563353787
 C         -0.2664134202       -2.5599013298       -0.1605864309
 H         -0.8363855801       -3.4149276299        0.2385098189
 C          0.5917118399       -3.0769906993       -1.3059107610
 C          2.0164742698       -2.6674607292       -1.5085963009
 C          1.6985835699       -4.0566998393       -1.0491485113
 H          1.8306701600       -4.8737691491       -1.7419873216
 H          1.9212681600       -4.3052015496       -0.0232076514
 H          2.3523513598       -2.5159473488       -2.5222244009
 H          2.4517397898       -1.9782451193       -0.8011877807
 H          0.0056903499       -3.2319532591       -2.2059455511
 O         -2.7583848702       -2.3775460903        1.0687734992
