  62
        -98.93695876
 C          1.8171512098        0.5239674897        1.1056521705
 C          3.0503844699        0.9960472398        0.5901645410
 C          4.0860384600       -0.0297386302        0.3705093211
 C          3.8184194499       -1.3190283502        0.6403096607
 C          4.7595374299       -2.4626776302        0.3982872408
 C          4.5600074904       -3.0607891199       -1.0014229594
 C          4.5341404307       -2.0201148796       -2.1209970492
 H          3.6493455107       -1.3901344396       -2.0027685193
 H          4.4189141910       -2.5594310594       -3.0638151893
 C          5.7834138608       -1.1307564996       -2.1903334886
 H          6.0982131111       -1.0500856494       -3.2329835085
 H          6.6017291006       -1.5975613498       -1.6407654585
 C          5.5764878206        0.2951183303       -1.6761589084
 H          4.7011187308        0.7354965304       -2.1603726285
 H          6.4451305307        0.8911569703       -1.9686978780
 C          5.4123169602        0.4401113199       -0.1580014284
 H          5.4694698501        1.5064314399        0.0800948819
 H          6.2326756900       -0.0701232102        0.3508402918
 H          3.6107266804       -3.6013225199       -1.0157497098
 H          5.3616185404       -3.7778036598       -1.1879828993
 H          4.5628851697       -3.2342684503        1.1445882005
 H          5.7840448299       -2.1139079302        0.5127555312
 O          2.6213361097       -1.7360320803        1.1252124503
 C          1.5980760697       -0.8329442004        1.3598701102
 O          0.5522843295       -1.3512579104        1.7968330797
 O          3.2975312400        2.1977419299        0.3174975714
 C          0.6286889597        1.4281171397        1.3922716204
 C         -0.2753798099        1.5174509299        0.1883016001
 C          0.2454644305        1.6934153502       -1.0894504397
 C         -0.5898157392        1.7451380605       -2.1907531199
 C         -1.9609841393        1.6329412604       -2.0405072904
 C         -2.4926703296        1.4646395702       -0.7695187106
 C         -1.6510080000        1.4060440699        0.3352779097
 H         -2.0708462303        1.2520372897        1.3203999695
 N         -3.8932366197        1.3541699301       -0.6287328510
 S         -4.6119483495       -0.0575769297       -1.1790059216
 O         -4.0705417691       -0.3760319494       -2.4741834815
 O         -6.0370000396        0.1668519103       -1.1095256620
 C         -4.1433858399       -1.2866993700        0.0258669383
 C         -2.8251292199       -1.6959282300        0.0740920686
 C         -2.4295281403       -2.5678718302        1.0761659485
 C         -3.3602870906       -3.0244504004        1.9973659982
 C         -4.6838347705       -2.6158985704        1.9273119178
 C         -5.0797321402       -1.7278441502        0.9402817079
 H         -6.0931775602       -1.3697359402        0.8566335077
 H         -5.4031330607       -2.9767638106        2.6449275075
 H         -3.0456430108       -3.6999193806        2.7772613781
 H         -1.3917031403       -2.8511750403        1.1517015088
 H         -2.1238436397       -1.3275402999       -0.6579938711
 H         -4.2201706200        1.5436187999        0.3088812189
 H         -2.6242004990        1.6554836006       -2.8893504406
 H         -0.1696087689        1.8781733907       -3.1763802098
 H          1.3137044105        1.7936877702       -1.2103480593
 H          0.0618592294        0.9194075095        2.1886334901
 C          1.0275167795        2.7969456395        1.9265121208
 C          0.9291766198        4.0547892897        1.1229897510
 C         -0.0254064305        3.8150505595        2.2514302807
 H          0.0808238192        4.3970926493        3.1542907208
 H         -1.0471819705        3.5778045895        1.9960861003
 H          1.7116949498        4.7877821597        1.2443442614
 H          0.5544018401        3.9863939399        0.1136423709
 H          1.8657191793        2.7315755194        2.6122530510
