  62
        -98.94468405
 C          0.8151848910        1.8701316311        0.2003314726
 C          1.5951935851        1.0897461637        1.0866738400
 C          2.8722201216        0.5959164274        0.5539764562
 C          3.1996575794        0.8661019636       -0.7231846448
 C          4.4485825252        0.3920244246       -1.4074262495
 C          4.2327230995       -0.9632574042       -2.0946063438
 C          3.5874583509       -2.0160560961       -1.1936720719
 H          2.5661464383       -1.7079333992       -0.9589243415
 H          3.5215670638       -2.9397016453       -1.7717035381
 C          4.3481731793       -2.2822637345        0.1125589838
 H          5.3693661767       -1.9084526642        0.0303858441
 H          4.4128341712       -3.3606577912        0.2696392015
 C          3.6894203522       -1.6872588158        1.3581164506
 H          2.6358704307       -1.9724534442        1.3873274300
 H          4.1745941076       -2.1162997035        2.2388095855
 C          3.7701670364       -0.1621097537        1.4914863229
 H          3.4376874492        0.1006101785        2.5001131308
 H          4.8057291412        0.1656948115        1.3767320811
 H          5.1994366620       -1.3260601730       -2.4487435020
 H          3.5873716296       -0.8117265125       -2.9627720751
 H          4.7271562332        1.1311854636       -2.1604758622
 H          5.2497971561        0.3161366258       -0.6746637861
 O          2.4019764599        1.5795981609       -1.5581907744
 C          1.2028415080        2.1189413466       -1.1163186224
 O          0.5935048535        2.7842502224       -1.9742698121
 H         -1.3076882837        0.0073376866        0.2640073048
 C         -1.9228488971        0.7245206737       -0.2632148356
 C         -1.6390178040        2.0813786491       -0.1511812211
 C         -2.4425697048        2.9876352036       -0.8303351282
 C         -3.4931721511        2.5436536634       -1.6133971730
 C         -3.7807067119        1.1956862419       -1.7109342459
 C         -2.9914581815        0.2796038076       -1.0243255180
 N         -3.2630548476       -1.0958183462       -1.1007426211
 S         -3.1777594774       -2.0325922121        0.2835425739
 O         -4.0956551344       -3.1264225240        0.0380325090
 O         -3.4277652986       -1.2539699451        1.4733742699
 C         -1.5293728914       -2.6994926939        0.2972915962
 C         -0.8711832659       -2.8430387097        1.5019495825
 C          0.3653664906       -3.4688057065        1.5202385843
 C          0.9206308456       -3.9337467964        0.3381799031
 C          0.2524797100       -3.7696329721       -0.8656514556
 C         -0.9879775983       -3.1532379525       -0.8892529735
 H         -1.5402160356       -3.0173292604       -1.8042244534
 H          0.6921078498       -4.1248498397       -1.7837216863
 H          1.8814277407       -4.4230542658        0.3556424217
 H          0.8868818062       -3.5913528850        2.4563654498
 H         -1.3339455056       -2.4593169268        2.3974597203
 H         -4.0760096730       -1.3321194095       -1.6516931869
 H         -4.6076156603        0.8496005987       -2.3126016024
 H         -4.1022401980        3.2582904477       -2.1459470643
 H         -2.2411008822        4.0431150929       -0.7567670871
 C         -0.4720248130        2.4935133408        0.7098448089
 H         -0.6268609157        2.0704757217        1.7135715545
 C         -0.3026353500        3.9937459955        0.8361764957
 C         -1.1525075867        4.7684328640        1.7971939889
 C          0.3016262074        4.5527594098        2.0877757558
 H          0.9755406409        5.3922341364        2.0042169672
 H          0.5724905516        3.8516588837        2.8636448305
 H         -1.4771899609        5.7592313542        1.5175443949
 H         -1.8739648267        4.2162895354        2.3804956050
 H         -0.0278779599        4.4642909411       -0.1014318636
 O          1.2468421113        0.8299882446        2.2703093358
