  62
        -98.94650125
 C         -1.1805886200       -1.1356716527        0.5747993760
 C         -1.6442085365       -0.6133928843       -0.6574547032
 C         -2.4470164240        0.6137047360       -0.5610073003
 C         -2.5914302258        1.2301197515        0.6251934862
 C         -3.3639672147        2.4956289354        0.8801076690
 C         -4.8674486041        2.2704881156        1.0938225453
 C         -5.6553001350        1.9041262690       -0.1648331959
 H         -6.7146787978        1.9906569324        0.0849009590
 H         -5.4465339070        2.6329705937       -0.9485814366
 C         -5.3874514204        0.4869396835       -0.6910482904
 H         -4.9139692972       -0.1092474239        0.0924212088
 H         -6.3369022187        0.0025873365       -0.9302500999
 C         -4.5206175212        0.4297323466       -1.9492404225
 H         -4.3650589823       -0.6203223056       -2.2092802821
 H         -5.0477313358        0.9066886966       -2.7785245460
 C         -3.1444979632        1.0921004527       -1.7984852152
 H         -3.2546135946        2.1759908325       -1.7859235054
 H         -2.5316652702        0.8083156596       -2.6569717665
 H         -5.0011834831        1.4905881752        1.8471011804
 H         -5.2819064340        3.1967150163        1.4985700442
 H         -3.2173532313        3.1943072890        0.0563603360
 H         -2.9498877837        2.9358947449        1.7894786347
 O         -2.0125648164        0.7654409293        1.7645929101
 C         -1.3304942680       -0.4380008333        1.7740942442
 O         -0.8948571006       -0.7711192726        2.8968066358
 O         -1.4179070921       -1.1378830836       -1.7767056695
 C         -0.4283343690       -2.4567667586        0.6328185850
 C          0.9495535881       -2.2477076016        0.0546284973
 C          1.3901816082       -2.8106912567       -1.1345653319
 C          2.6567763100       -2.5234459550       -1.6173951528
 C          3.5070902452       -1.6788300915       -0.9272167521
 C          3.0735405222       -1.1132958487        0.2655358994
 C          1.8066880978       -1.3986411353        0.7458957191
 H          1.4658891140       -0.9523611680        1.6720206394
 N          3.9267915720       -0.2310377391        0.9696478312
 S          4.2159163679        1.2287040925        0.1996397105
 O          4.9972724984        0.9796884773       -0.9841261855
 O          4.8164313018        2.0861165464        1.1956033885
 C          2.6020234310        1.8407751081       -0.2497503535
 C          2.0265162265        1.4169300731       -1.4309958233
 C          0.7527489274        1.8577642764       -1.7496313831
 C          0.0824090344        2.7115240890       -0.8879698109
 C          0.6691672715        3.1199365058        0.2994498803
 C          1.9395879806        2.6757369081        0.6274223276
 H          2.4347620563        2.9745052229        1.5377868886
 H          0.1400748350        3.7786921691        0.9694276593
 H         -0.9038468467        3.0606058230       -1.1464072139
 H          0.2839532336        1.5263999529       -2.6620797805
 H          2.5813283600        0.7612257148       -2.0817663231
 H          3.5994726534       -0.0426104557        1.9075884757
 H          4.4886496820       -1.4322966053       -1.2983823201
 H          2.9857682797       -2.9642987558       -2.5461361054
 H          0.7386756901       -3.4635867030       -1.6909514310
 H         -0.3072941268       -2.6853426405        1.7012411160
 C         -1.2105359005       -3.5762307637       -0.0178667333
 C         -0.8730138197       -4.9982927765        0.3115027645
 C         -2.1464478650       -4.3931046332        0.8192115605
 H         -3.0808033923       -4.7142069820        0.3837561747
 H         -2.2157876407       -4.1545136286        1.8708748339
 H         -0.9334208588       -5.7385680397       -0.4715494059
 H         -0.0762874545       -5.1709759143        1.0193674913
 H         -1.5219812296       -3.3470531546       -1.0291288661
