  62
        -98.93342698
 C         -2.4406322942       -0.9993803385        0.5107034385
 C         -2.3814317519        0.2927171658       -0.0637980963
 C         -3.5545409083        1.1616969776        0.1627538121
 C         -4.5731129022        0.7125613322        0.9145370460
 C         -5.8695006012        1.4117585510        1.2165796551
 C         -6.9562427537        0.9993202289        0.2092770663
 C         -6.9952412719        1.8309735176       -1.0722330016
 H         -7.3754787589        2.8281287018       -0.8407939277
 H         -7.7116902251        1.3557672973       -1.7463234522
 C         -5.6562294854        1.9756904513       -1.8003074964
 H         -5.8669068070        2.2440629978       -2.8374410209
 H         -5.1395890736        1.0142299098       -1.8150571772
 C         -4.7470679804        3.0498495774       -1.1845744474
 H         -5.3310966258        3.6539201632       -0.4904024303
 H         -4.4048821917        3.7263094934       -1.9705140250
 C         -3.4895049767        2.5216350331       -0.4773615545
 H         -3.1736681082        3.2476001142        0.2791256708
 H         -2.6691324042        2.4488434523       -1.1983753150
 H         -7.9315915624        1.0787163896        0.6936347315
 H         -6.8005265309       -0.0537982071       -0.0392568013
 H         -5.7329402942        2.4889539557        1.2293048564
 H         -6.1754496427        1.0832687903        2.2120742409
 O         -4.5699224511       -0.5235749184        1.4860164201
 C         -3.5177778943       -1.4003086610        1.3056300692
 O         -3.6503519982       -2.4886444322        1.9005130971
 O         -1.4119951773        0.7154619632       -0.7448372641
 C         -1.3114837211       -2.0045230633        0.3558943881
 C          0.0163839563       -1.3407683418        0.6240319159
 C          0.3055885513       -0.9255064594        1.9208605815
 C          1.5080302190       -0.3122919199        2.2156697071
 C          2.4487078396       -0.0982006923        1.2234045163
 C          2.1703510748       -0.5074836538       -0.0728898405
 C          0.9638363855       -1.1311336199       -0.3646042845
 H          0.7525132748       -1.4249623026       -1.3812085146
 N          3.1150820827       -0.2761327549       -1.0867144241
 S          4.7006033272       -0.7566995103       -0.8321553952
 O          5.2504992326       -0.9671561216       -2.1539704110
 O          4.7728244391       -1.8765316693        0.0780785867
 C          5.4770000721        0.6713910780       -0.1050579490
 C          5.4246408122        1.8651460488       -0.7976219274
 C          6.0339852361        2.9831207417       -0.2509993400
 C          6.6844714595        2.8885645011        0.9703971874
 C          6.7310769290        1.6820643668        1.6517939553
 C          6.1223628131        0.5601839622        1.1108365629
 H          6.1292981050       -0.3973644541        1.6069720000
 H          7.2377301482        1.6106228149        2.6008654305
 H          7.1581941132        3.7604023656        1.3933442070
 H          5.9995695590        3.9232078249       -0.7777863473
 H          4.9126856445        1.8965501013       -1.7449514104
 H          2.7972309802       -0.5348641696       -2.0092017379
 H          3.3873551905        0.3836176962        1.4439332557
 H          1.7153127215        0.0051270225        3.2264905711
 H         -0.4321387150       -1.0870530746        2.6956781442
 H         -1.4813453719       -2.7428458831        1.1568751629
 C         -1.3410586127       -2.7796562748       -0.9533221541
 C         -2.6451350816       -3.1443406404       -1.5961109502
 C         -1.7337075738       -2.1573847225       -2.2582485837
 H         -1.2083286091       -2.4671660954       -3.1504229305
 H         -2.0098221639       -1.1150836343       -2.2552910011
 H         -2.7469776009       -4.1271519204       -2.0311748786
 H         -3.5486885247       -2.7774034120       -1.1310493207
 H         -0.5605849156       -3.5345547335       -0.9893857573
