  62
        -98.94823771
 C         -1.3255386468       -1.5552329832        0.2272392338
 C         -1.6388262166       -0.5769113328        1.2019294046
 C         -2.9129972082        0.1250036808        1.0214871843
 C         -3.7098336434       -0.1958737057       -0.0144019620
 C         -5.0702997896        0.3818589492       -0.2976946006
 C         -5.0450568833        1.6975717788       -1.0864179337
 C         -4.5558895799        2.9134620937       -0.2991016126
 H         -4.7858599160        3.7982348123       -0.8960428549
 H         -5.1173810603        2.9935210646        0.6323679364
 C         -3.0514780012        2.9014585456        0.0042867496
 H         -2.6190711387        3.8793119248       -0.2203392815
 H         -2.5459260376        2.1860169561       -0.6490664670
 C         -2.6895988502        2.5777500289        1.4536822001
 H         -3.0470321688        3.3760879352        2.1086377136
 H         -1.5981300628        2.5505967481        1.5172424072
 C         -3.2427302996        1.2406091156        1.9657565594
 H         -2.7698256149        1.0186222533        2.9256778278
 H         -4.3203103902        1.3129826597        2.1141438018
 H         -6.0646633675        1.8950908106       -1.4255399172
 H         -4.4189529134        1.5631555129       -1.9716250342
 H         -5.6056236951        0.5300930149        0.6406176868
 H         -5.6051428206       -0.3633760144       -0.8906006013
 O         -3.3689063090       -1.1349661994       -0.9361075919
 C         -2.1507678862       -1.7983771496       -0.8699822680
 O         -1.9381724510       -2.5702098890       -1.8245244650
 O         -0.8897556206       -0.3102207407        2.1807347806
 C         -0.0010168536       -2.2885592174        0.3326655239
 C          0.9368991324       -1.8169323171       -0.7522391273
 C          1.7156675694       -2.6642567695       -1.5295110292
 C          2.5770151647       -2.1431395157       -2.4804089310
 C          2.7088347621       -0.7769919028       -2.6519063981
 C          1.9379523795        0.0792665098       -1.8735954999
 C          1.0515622030       -0.4472787324       -0.9492234332
 H          0.4354464889        0.2274312664       -0.3755490424
 N          2.0471208490        1.4739289198       -1.9855817278
 S          1.9603987620        2.3921728034       -0.5854018869
 O          0.5914353746        2.5398057098       -0.1648170697
 O          2.6483721168        3.6208317332       -0.9252710876
 C          2.9175831320        1.4786991947        0.6122237469
 C          2.3119382131        0.8232198211        1.6642879722
 C          3.1021554958        0.0814311916        2.5297054992
 C          4.4714323928        0.0070516918        2.3317910779
 C          5.0657458541        0.6798909504        1.2746062722
 C          4.2829717848        1.4203785041        0.4053637594
 H          4.7078912181        1.9665933806       -0.4211902431
 H          6.1319388119        0.6260426039        1.1248136642
 H          5.0778302864       -0.5764672070        3.0065114050
 H          2.6329277927       -0.4379516404        3.3503022947
 H          1.2426563146        0.8825020776        1.7992515776
 H          2.7813468642        1.7951450109       -2.5991884883
 H          3.3930243850       -0.3746151027       -3.3830193659
 H          3.1668522048       -2.8123685266       -3.0880246405
 H          1.6431469848       -3.7310676650       -1.3973320468
 H          0.4286839179       -1.9658759253        1.2938445398
 C         -0.1955412173       -3.7884517784        0.3692731311
 C          0.7985290117       -4.6552697978        1.0813817462
 C         -0.5620474037       -4.4373255639        1.6694822749
 H         -1.2695867657       -5.2526901871        1.6566579642
 H         -0.6506608289       -3.7981623544        2.5359440019
 H          1.0257122934       -5.6259163162        0.6671935311
 H          1.6381305666       -4.1682237368        1.5536417159
 H         -0.6629988811       -4.1725702885       -0.5297635893
