  62
        -98.94395658
 C          1.8964927180        1.2239032260        0.4329822133
 C          1.9322179241        0.2287320203       -0.5742162128
 C          3.2709100532       -0.2448716391       -0.9491872502
 C          4.3600946491        0.2945397871       -0.3724906091
 C          5.7897457911       -0.0715944435       -0.6656854277
 C          6.2906421873       -1.2960082203        0.1126993402
 C          5.7280336314       -2.6392720115       -0.3543424693
 H          5.8733198318       -2.7384654220       -1.4305120794
 H          6.3209850095       -3.4195393264        0.1271368518
 C          4.2484335496       -2.8612094158       -0.0099782220
 H          3.9448476187       -2.1534032252        0.7650236609
 H          4.1170708571       -3.8631377593        0.4050772702
 C          3.2945444714       -2.7341701649       -1.1979645067
 H          2.2731485651       -2.8707713319       -0.8328021478
 H          3.5023756215       -3.5269399579       -1.9200882465
 C          3.3640567210       -1.3824354028       -1.9206186978
 H          4.2818025403       -1.3142543011       -2.5041443776
 H          2.5106190313       -1.3130670487       -2.5991724600
 H          6.0627156629       -1.1540509589        1.1718145465
 H          7.3777587936       -1.3261457030        0.0088912441
 H          6.3968174473        0.7899213824       -0.3790955923
 H          5.9134095463       -0.2433093752       -1.7352304701
 O          4.2830328016        1.2791057570        0.5626715316
 C          3.0555299412        1.7467235730        1.0054267259
 O          3.1273532332        2.6179762357        1.8967131948
 O          0.9080623759       -0.2422927201       -1.1292959905
 C          0.5661813360        1.7648504530        0.9187864685
 C         -0.3265522831        0.6609203207        1.4341046648
 C          0.2201606324       -0.4647946142        2.0420966873
 C         -0.5862329511       -1.4922220609        2.4952930782
 C         -1.9622637888       -1.4137200290        2.3707652823
 C         -2.5208418550       -0.2821993236        1.7955794766
 C         -1.7083514746        0.7448432431        1.3319090298
 H         -2.1623510043        1.6137632151        0.8800075292
 N         -3.9282216186       -0.2070862029        1.6679114305
 S         -4.5807765103       -1.1463174997        0.4401222807
 O         -6.0078421008       -0.9216270198        0.4842323529
 O         -4.1369705443       -2.5046734341        0.6134086456
 C         -3.9019293707       -0.4376401890       -1.0484285594
 C         -2.5906319569       -0.7149723647       -1.3783928349
 C         -2.0233526707       -0.0728331893       -2.4678624750
 C         -2.7759685915        0.8265473441       -3.2071235315
 C         -4.0958210926        1.0877615519       -2.8685968181
 C         -4.6635657723        0.4592454764       -1.7725178692
 H         -5.6820387084        0.6387986639       -1.4673981616
 H         -4.6779705313        1.7856909029       -3.4489387892
 H         -2.3286117818        1.3284135887       -4.0510727870
 H         -0.9880112740       -0.2640408240       -2.7011036098
 H         -2.0219098308       -1.4153506024       -0.7886324682
 H         -4.2661821697        0.7401691716        1.5611151622
 H         -2.6062211075       -2.2141578555        2.6960654182
 H         -0.1387022070       -2.3638590198        2.9490345118
 H          1.2946120071       -0.5351550570        2.1443128293
 H          0.7994178854        2.4363887101        1.7587779952
 C         -0.0919296102        2.5727091473       -0.1847126987
 C         -0.8818994562        3.8058312191        0.1338972679
 C          0.4620350653        3.9239725085       -0.5182274833
 H          0.5116376223        4.2211595998       -1.5547483281
 H          1.2911738018        4.2780457802        0.0775816978
 H         -1.7570479872        4.0254039219       -0.4594926722
 H         -0.9640392631        4.0976632060        1.1703921797
 H         -0.4256565252        1.9510707084       -1.0078194780
