  62
        -98.94027210
 C          2.0081698363        0.0993698014       -0.4829886673
 C          2.8118074420       -0.5459746188        0.4897082205
 C          4.1382238332        0.0497550227        0.7132439734
 C          4.4993791411        1.1651486912        0.0557402469
 C          5.8034253541        1.9008761887        0.2038467097
 C          6.9450129958        1.3244402074       -0.6449045172
 C          7.5119145571       -0.0085563150       -0.1544569299
 H          8.4385067533       -0.1840619059       -0.7047215272
 H          7.7717173956        0.0751524767        0.9012857631
 C          6.5787142177       -1.2093015983       -0.3637650417
 H          5.8081722527       -0.9481099901       -1.0928947337
 H          7.1467429612       -2.0426472681       -0.7834890415
 C          5.9033191544       -1.7168346695        0.9103250900
 H          5.2386090211       -2.5414300010        0.6407654660
 H          6.6597523272       -2.1048167121        1.5960817800
 C          5.0714458031       -0.6595698989        1.6478381979
 H          4.4645528897       -1.1659668189        2.4022853814
 H          5.7265885054        0.0540600760        2.1468507170
 H          7.7529536834        2.0598004507       -0.6463718543
 H          6.5941941750        1.2151898252       -1.6738146755
 H          5.6187169942        2.9277585024       -0.1192018179
 H          6.0998281963        1.9153833005        1.2531156270
 O          3.6796410040        1.7826595232       -0.8369694344
 C          2.4356806003        1.2569671631       -1.1391216177
 O          1.8050930428        1.9015725820       -2.0026282481
 H         -1.5891174851        0.9750118881       -1.5987815425
 C         -1.5146982830        0.8669933834       -0.5249813875
 C         -0.4257664534        0.2031856157        0.0201535246
 C         -0.3381875161        0.0876459521        1.4041079385
 C         -1.3150554744        0.6326844294        2.2171246435
 C         -2.3999316671        1.2955512015        1.6696252064
 C         -2.4986234379        1.4115285285        0.2900698335
 N         -3.6240884670        2.0530911267       -0.2681927693
 S         -5.1019728464        1.3432320712        0.0952177226
 O         -6.0115475701        1.7930705685       -0.9336193467
 O         -5.4630979625        1.6658518026        1.4516909017
 C         -4.7819435171       -0.4039263973       -0.0612731311
 C         -4.7561497604       -0.9519582342       -1.3285818275
 C         -4.4068414308       -2.2844012312       -1.4759789378
 C         -4.0764200652       -3.0383987021       -0.3601356341
 C         -4.1096424864       -2.4740063197        0.9052080468
 C         -4.4653527093       -1.1436628144        1.0602318998
 H         -4.5060794971       -0.6696325894        2.0268696683
 H         -3.8526227818       -3.0634395367        1.7705124914
 H         -3.7878152870       -4.0704586202       -0.4783949813
 H         -4.3837598274       -2.7281175093       -2.4584567725
 H         -5.0202921878       -0.3324170770       -2.1709608779
 H         -3.5474451423        2.1934200369       -1.2658253645
 H         -3.1752230287        1.7191635262        2.2875797239
 H         -1.2327436146        0.5390866735        3.2894111180
 H          0.5005863925       -0.4400967408        1.8315820935
 C          0.6255844135       -0.3919503504       -0.8799133239
 H          0.4609551270        0.0119533324       -1.8913034217
 C          0.5318792128       -1.9098970788       -0.9761557808
 C         -0.3516837869       -2.7443966282       -0.1025027872
 C         -0.7074969184       -2.5383546609       -1.5417347100
 H         -0.6022272879       -3.3631246364       -2.2297707287
 H         -1.5387226409       -1.8834916990       -1.7576788991
 H          0.0253181400       -3.7062137910        0.2091290644
 H         -0.9522410940       -2.2487188874        0.6436624099
 H          1.4772049834       -2.3560538562       -1.2657813544
 O          2.4627422885       -1.5582844444        1.1470768100
