  62
        -98.93719966
 C         -1.6595151202       -1.4373739211       -0.0044615218
 C         -2.9487086452       -1.2151301487        0.5444608163
 C         -3.7490855140       -0.1098946341       -0.0167607213
 C         -3.2123472027        0.6415468424       -0.9952466895
 C         -3.8036011528        1.8467016178       -1.6760911234
 C         -3.7374187083        3.1110950406       -0.8028188454
 C         -4.0965107207        2.8995893511        0.6658601821
 H         -3.4417951283        2.1360918053        1.0901681611
 H         -3.8908981057        3.8331861804        1.1959820176
 C         -5.5526239191        2.5250826484        0.9320403029
 H         -5.6822895146        2.4733894380        2.0161770544
 H         -6.2009786324        3.3211089888        0.5585654220
 C         -6.0237594060        1.1984556464        0.3333679351
 H         -6.9920831029        0.9635865063        0.7852988228
 H         -6.1982750427        1.2923924420       -0.7351680196
 C         -5.1130383371        0.0080848246        0.6190204095
 H         -4.9472974216       -0.0641040660        1.6999289512
 H         -5.6479168082       -0.9108110085        0.3483756998
 H         -2.7154747643        3.4953821311       -0.8419064989
 H         -4.3967974269        3.8648002578       -1.2362889875
 H         -3.2165367367        2.0174427469       -2.5813294815
 H         -4.8247686888        1.6374750686       -1.9809566675
 O         -1.9648917464        0.4037382145       -1.4846663197
 C         -1.1610248334       -0.6277563516       -1.0262323505
 O         -0.0667122004       -0.6964721913       -1.6156256274
 O         -3.4203453285       -1.9120882836        1.4825211851
 C         -0.8190959802       -2.5329190835        0.6322200852
 C          0.4936732875       -1.9373948042        1.0692875221
 C          0.5829586893       -1.2750889830        2.2899438386
 C          1.7548887245       -0.6458834043        2.6679353659
 C          2.8483552289       -0.6320868277        1.8195652383
 C          2.7580535466       -1.2707443824        0.5896464287
 C          1.6004798308       -1.9505072626        0.2357199013
 H          1.5435237035       -2.4469345499       -0.7200383481
 N          3.8342318343       -1.1976033208       -0.3111321167
 S          4.6087429926        0.2776197461       -0.4629557194
 O          5.0868155152        0.3208110307       -1.8281207685
 O          5.6321050398        0.3796797510        0.5507173694
 C          3.3903161477        1.5577164343       -0.1890386360
 C          2.1608480213        1.4811812770       -0.8116707822
 C          1.2373821041        2.4910975607       -0.5910295904
 C          1.5563766379        3.5597225448        0.2313693706
 C          2.7997470779        3.6264745585        0.8412053247
 C          3.7245253356        2.6165163537        0.6326210917
 H          4.6972631258        2.6219158621        1.0974435364
 H          3.0482075674        4.4579584571        1.4809613523
 H          0.8321548169        4.3414835420        0.3989758561
 H          0.2689610602        2.4204815028       -1.0619194942
 H          1.9026696878        0.6407210745       -1.4364114426
 H          3.6196829676       -1.5829596674       -1.2196558220
 H          3.7646573580       -0.1309812407        2.0878262662
 H          1.8151052462       -0.1478696910        3.6234650295
 H         -0.2825216502       -1.2518188147        2.9372693880
 H         -1.3854426354       -2.8179159709        1.5328667276
 C         -0.6528807563       -3.8010441379       -0.1906440128
 C         -1.8254111849       -4.3850128222       -0.9196705813
 C         -0.6636930064       -3.8340689628       -1.6881001253
 H         -0.0024293502       -4.5309600304       -2.1830246680
 H         -0.7903604923       -2.9050207868       -2.2201303059
 H         -1.9718350523       -5.4542891771       -0.8967111924
 H         -2.7440304074       -3.8162589209       -0.9105465773
 H          0.0106779680       -4.5071172476        0.3003006035
