  62
        -98.94795763
 C          2.3239736993        0.3457638593        0.1428072303
 C          1.7508146594       -0.2926138905       -0.9833451599
 C          1.7509234989       -1.7600247005       -0.9556589499
 C          2.1714561484       -2.4050898607        0.1470913902
 C          2.2293892278       -3.8967974207        0.3343660102
 C          0.8861196974       -4.5239573302        0.7319647898
 C         -0.1355112823       -4.6454259699       -0.3993844405
 H          0.3350446078       -5.1146807700       -1.2645995004
 H         -0.9206419126       -5.3181925896       -0.0483017808
 C         -0.7810179217       -3.3164910796       -0.8163247007
 H         -0.6454460517       -2.5774122197       -0.0230460507
 H         -1.8593504417       -3.4574124792       -0.9300213311
 C         -0.2604019411       -2.7423996798       -2.1332524805
 H         -0.7685093407       -1.7925594596       -2.3108240707
 H         -0.5145996510       -3.4198044397       -2.9521541706
 C          1.2523347190       -2.4918631703       -2.1669708001
 H          1.7838167587       -3.4382322605       -2.2707131299
 H          1.4730692195       -1.8700101004       -3.0384610200
 H          1.0943647370       -5.5257410603        1.1157947798
 H          0.4533386074       -3.9365834501        1.5460028796
 H          2.5976038979       -4.3687580308       -0.5774456697
 H          2.9479444775       -4.0809819310        1.1361774804
 O          2.6268245282       -1.7515267209        1.2491718804
 C          2.7110095187       -0.3711193709        1.2742310904
 O          3.1475575286        0.0990701689        2.3478614606
 O          1.2753343500        0.3257439897       -1.9711149900
 C          2.4052032898        1.8645477892        0.2076107204
 C          0.9919765100        2.3918525397        0.2364274699
 C          0.4585859506        3.2723138099       -0.6947398702
 C         -0.8871420293        3.6004474404       -0.6603966706
 C         -1.7300185598        3.0365735807        0.2806638291
 C         -1.1972358004        2.1755943905        1.2306906193
 C          0.1546863295        1.8865247500        1.2246455997
 H          0.5592819591        1.2038469098        1.9618566898
 N         -2.0830467009        1.5035018808        2.1289773990
 S         -2.3059883513       -0.0907965991        1.6049793689
 O         -3.2640300918       -0.6764409488        2.5186840186
 O         -1.0462439615       -0.7972346196        1.4994031093
 C         -3.0372259107        0.1476818312        0.0043895287
 C         -4.4126614806        0.2330978816       -0.0891233718
 C         -4.9859568602        0.4768585619       -1.3266555719
 C         -4.1771316098        0.6381922216       -2.4418389017
 C         -2.7980846898        0.5517688311       -2.3298926813
 C         -2.2175487703        0.3048135009       -1.0956582711
 H         -1.1465613704        0.2366995105       -0.9805274208
 H         -2.1611552295        0.6801206409       -3.1906623511
 H         -4.6223642794        0.8328429118       -3.4047531218
 H         -6.0581305401        0.5439590522       -1.4172567823
 H         -4.9972237510        0.1008833518        0.8064753181
 H         -1.7234963712        1.4673850106        3.0745154191
 H         -2.7875806797        3.2437462611        0.2880444888
 H         -1.2888601188        4.2801080406       -1.3956316607
 H          1.0930879710        3.6845292797       -1.4619364700
 H          2.8831779796        2.1018536691        1.1690066405
 C          3.2506543704        2.4182450190       -0.9175865494
 C          3.9075720108        3.7566204487       -0.7683485091
 C          4.7347580203        2.5075481484       -0.7343482589
 H          5.3717762705        2.2850932782       -1.5770281687
 H          5.1392776499        2.1846155283        0.2142491512
 H          3.9816794513        4.3949356287       -1.6354596591
 H          3.7551234607        4.2873980188        0.1592848908
 H          2.8860912106        2.1307941791       -1.8962064095
