  62
        -98.93943802
 C         -2.2819090599       -0.8673055998        0.6301915699
 C         -3.4294242100       -0.9160254094       -0.1992897700
 C         -4.4839944000        0.0650496004        0.1023469906
 C         -4.3111173099        0.9412466199        1.1073460710
 C         -5.2799417999        2.0247668097        1.4811539417
 C         -4.9726330700        3.3307099501        0.7351925624
 C         -4.7831766702        3.1524114308       -0.7712478978
 H         -3.8826358602        2.5595493410       -0.9487496681
 H         -4.6033555002        4.1427750811       -1.1952186973
 C         -5.9720146502        2.4969104112       -1.4878430380
 H         -6.1783094403        3.0538745717       -2.4041672077
 H         -6.8628387201        2.5612287108       -0.8620675779
 C         -5.7419679502        1.0402044614       -1.8939063988
 H         -4.7993683402        0.9569882717       -2.4405693189
 H         -6.5439546703        0.7469982417       -2.5764887088
 C         -5.7244501201        0.0231712808       -0.7459991893
 H         -5.7502875001       -0.9767055690       -1.1885131498
 H         -6.6159589900        0.1492176105       -0.1286034192
 H         -4.0546125400        3.7565641299        1.1471484625
 H         -5.7868015200        4.0335771499        0.9211661828
 H         -6.2912835499        1.6935572497        1.2533521216
 H         -5.1981065198        2.2021016891        2.5548548518
 O         -3.1948383798        0.9637622695        1.8806214810
 C         -2.1644211998        0.0662572297        1.6650793904
 O         -1.2095749098        0.1899571893        2.4605168004
 H          1.4695805601       -1.0476639297        0.7098883995
 C          1.1367899000       -1.0353329592       -0.3173201305
 C         -0.1707328400       -1.3843581891       -0.6246177605
 C         -0.5824202701       -1.3423813984       -1.9526845205
 C          0.2988161598       -0.9506054279       -2.9435083904
 C          1.6004711598       -0.5988285480       -2.6334966003
 C          2.0248045799       -0.6458988487       -1.3102894304
 N          3.3586952799       -0.3453570988       -0.9833547403
 S          3.7186359300        0.3903568005        0.4915988000
 O          3.6277170302       -0.5956478101        1.5386047095
 O          2.9287538400        1.5906040003        0.6570220607
 C          5.4307033600        0.8050989207        0.2136468101
 C          6.3745388300       -0.1993807894        0.3187714995
 C          7.7050608500        0.1034699908        0.0781181995
 C          8.0682430099        1.3984765710       -0.2615170099
 C          7.1105139499        2.3963624910       -0.3606415792
 C          5.7773458899        2.0996814808       -0.1229132093
 H          4.9992718999        2.8439636508       -0.1803258788
 H          7.3961517198        3.4027371311       -0.6211560787
 H          9.1046909299        1.6321224711       -0.4471354598
 H          8.4527165400       -0.6691533492        0.1571598390
 H          6.0458971101       -1.1876525395        0.5947784290
 H          3.8491491098        0.1101581716       -1.7414646801
 H          2.2858991397       -0.2939821676       -3.4098408202
 H         -0.0327884203       -0.9155332373       -3.9703782403
 H         -1.5999937001       -1.6065522883       -2.1955594105
 C         -1.1036184899       -1.8173532797        0.4816998093
 H         -0.5465113698       -1.7423141202        1.4262176593
 C         -1.5212460099       -3.2633501296        0.2899706586
 C         -0.5404604998       -4.3456071897        0.6214201279
 C         -1.7402163797       -4.1274796202        1.4930064882
 H         -2.5384156297       -4.8539372602        1.4667678279
 H         -1.5900556296       -3.6782356407        2.4645039784
 H          0.4242875802       -4.0443972499        1.0026278780
 H         -0.5123701298       -5.2244949594       -0.0040087925
 H         -2.1754165399       -3.4143794592       -0.5580530314
 O         -3.5933383400       -1.7288417189       -1.1469719704
