  62
        -98.94523799
 C         -2.4488267430       -1.2066525342       -0.0800775169
 C         -3.5218091027       -0.8117095110        0.7592952825
 C         -4.3966184989        0.2415602876        0.2351460691
 C         -4.1507841433        0.7697078584       -0.9775498122
 C         -4.9609066429        1.8395804481       -1.6580061641
 C         -4.5924844753        3.2672521986       -1.2314617159
 C         -5.0443797144        3.6633883964        0.1747689607
 H         -4.9183139914        4.7446793866        0.2580790137
 H         -6.1077983056        3.4498089598        0.2868138737
 C         -4.2586757596        2.9868193772        1.3068281913
 H         -3.3256875627        2.5788631045        0.9099791907
 H         -3.9859128584        3.7328690461        2.0566435523
 C         -5.0189278778        1.8749166917        2.0298931544
 H         -4.3559954939        1.4414441013        2.7828300173
 H         -5.8838065536        2.2981775858        2.5453259600
 C         -5.5020665990        0.7418017015        1.1153314358
 H         -6.3453398012        1.0779417956        0.5126475418
 H         -5.8286304742       -0.0902839326        1.7437305709
 H         -3.5095458550        3.3880459597       -1.3143857974
 H         -5.0579892274        3.9504968376       -1.9456305535
 H         -4.7694038010        1.7404018611       -2.7286563872
 H         -6.0221532422        1.6666799210       -1.4769199945
 O         -3.1143417669        0.3608536119       -1.7558238701
 C         -2.2284383796       -0.6171734175       -1.3248844320
 O         -1.3207759543       -0.8674001082       -2.1425506914
 O         -3.7400247217       -1.3212833395        1.8899313378
 C         -1.4978159537       -2.2734245035        0.4391293904
 C         -0.1775291528       -1.6104455099        0.7434956139
 C         -0.0084999823       -0.9551817756        1.9603414472
 C          1.1613979464       -0.2739943241        2.2385848621
 C          2.1825186011       -0.2202583216        1.3053224300
 C          2.0154227255       -0.8540131194        0.0820633672
 C          0.8502952921       -1.5607492653       -0.1850799113
 H          0.7296528528       -2.0373387494       -1.1449947998
 N          3.0387113806       -0.7872627617       -0.8805598685
 S          3.6854389555        0.7241501374       -1.2272649595
 O          2.7398105123        1.7869326640       -0.9740990770
 O          4.1936350096        0.6195020076       -2.5779617034
 C          5.0641274922        0.8521760879       -0.1053265439
 C          5.1783634107        1.9486597009        0.7265589992
 C          6.2638133190        2.0287197029        1.5853633204
 C          7.2112674183        1.0167016088        1.5962974880
 C          7.0840637350       -0.0763442718        0.7519388292
 C          6.0021446118       -0.1617568280       -0.1095171957
 H          5.8676407169       -0.9914648720       -0.7830493695
 H          7.8229481145       -0.8613395112        0.7629428014
 H          8.0538538314        1.0805399010        2.2665701904
 H          6.3643856617        2.8784048521        2.2414769383
 H          4.4139137735        2.7085229785        0.6874007957
 H          2.8072795255       -1.2705003564       -1.7372210299
 H          3.0924217420        0.3203218943        1.5088454871
 H          1.2799331853        0.2247580174        3.1885249085
 H         -0.8155584426       -0.9754208250        2.6794030244
 H         -1.9360134625       -2.6130270784        1.3871976234
 C         -1.3909720668       -3.4573112888       -0.4983724502
 C         -0.7820989985       -4.7323368419        0.0013249670
 C         -2.2553795652       -4.6577738824       -0.2611744778
 H         -2.6553339723       -5.1801456719       -1.1173290594
 H         -2.9256274249       -4.6310980277        0.5853428454
 H         -0.1680322404       -5.3099299234       -0.6724993563
 H         -0.4507301919       -4.7545448307        1.0283645158
 H         -1.2104639276       -3.1773575301       -1.5290387677
