  62
        -98.94034950
 C         -2.3105689498       -0.4113095508        0.1310826714
 C         -3.5474609998       -0.9971595594        0.4930434537
 C         -4.6795379298       -0.0725418789        0.6362129299
 C         -4.4778778999        1.2454842004        0.4549084645
 C         -5.5497261900        2.2938490706        0.5218483902
 C         -6.1675780200        2.5434552649       -0.8610300209
 C         -6.5804075498        1.2657359918       -1.5918118857
 H         -7.0309988298        1.5648942979       -2.5406760169
 H         -5.6851410098        0.6867659209       -1.8303364633
 C         -7.5645915098        0.3800454750       -0.8149338621
 H         -8.3526114797        0.0521898221       -1.4961279708
 H         -8.0407756699        0.9609749781       -0.0243442545
 C         -6.9439529897       -0.8819286625       -0.2125883269
 H         -7.7556704197       -1.5354870812        0.1177461157
 H         -6.3848956297       -1.4187475557       -0.9832124847
 C         -6.0163811098       -0.6616839176        0.9892138122
 H         -6.5225943799       -0.0493694745        1.7380622997
 H         -5.8052301998       -1.6402782357        1.4300767762
 H         -5.4343669700        3.0684774024       -1.4776616330
 H         -7.0366285900        3.1924791453       -0.7391274836
 H         -6.3185643500        1.9761872334        1.2233075314
 H         -5.1008650601        3.2208220921        0.8823879164
 O         -3.2681426200        1.7745639292        0.1392600124
 C         -2.1571763799        0.9638814885       -0.0448223642
 O         -1.1202823499        1.5811818073       -0.3526418867
 H          1.4711955402       -0.4256429035       -0.5867378683
 C          1.2384373002       -0.4767884892        0.4631403219
 C         -0.0072920098       -0.9038494675        0.8919500935
 C         -0.2643760999       -0.9482094819        2.2605943637
 C          0.7014887001       -0.5714463081        3.1726336322
 C          1.9456419000       -0.1461398798        2.7404243306
 C          2.2096705601       -0.0903646154        1.3771238003
 N          3.4483538401        0.3798846428        0.9142408385
 S          4.0842006002       -0.2027890630       -0.5327213091
 O          3.4406807202        0.4569808724       -1.6404548318
 O          4.0531443503       -1.6487539631       -0.5448695032
 C          5.7633732502        0.3797848577       -0.3864811714
 C          6.7665798902       -0.4968566608       -0.0196745978
 C          8.0604655202       -0.0170201901        0.1125732004
 C          8.3267571001        1.3237759590       -0.1199294751
 C          7.3091469501        2.1918157974       -0.4880395187
 C          6.0140026901        1.7184389767       -0.6237792569
 H          5.1926994401        2.3521795455       -0.9160805295
 H          7.5201831700        3.2332332466       -0.6702950130
 H          9.3341061801        1.6949426594       -0.0164055066
 H          8.8543190502       -0.6893903589        0.3953174731
 H          6.5131210603       -1.5318584201        0.1441642165
 H          4.1501442501        0.4297376058        1.6397531383
 H          2.7010981400        0.1509625031        3.4518698794
 H          0.4878521200       -0.6128752338        4.2302059924
 H         -1.2375693199       -1.2806274906        2.5961824850
 C         -1.1034139897       -1.3124077915       -0.0599426048
 H         -1.4434845297       -2.3201464404        0.2217477793
 C         -0.6742503096       -1.3346697974       -1.5111948347
 C          0.1238245305       -2.4897004795       -2.0350517900
 C         -1.3060487195       -2.3171799213       -2.4490799907
 H         -1.5165596395       -2.0024952454       -3.4602267120
 H         -2.0418567295       -2.9929905396       -2.0381482380
 H          0.3630424905       -3.2837331466       -1.3436378067
 H          0.9034540605       -2.2912696624       -2.7554762607
 H         -0.4513679997       -0.3465270990       -1.8998197088
 O         -3.6961257397       -2.2333049786        0.6904085288
