  62
        -98.94738702
 C         -2.5639455119       -0.1371128516       -0.3981366313
 C         -2.1650825144       -0.7042969428        0.8364337993
 C         -1.7213424478       -2.1045040103        0.7844483364
 C         -1.7021844910       -2.7462789425       -0.3976845220
 C         -1.2493979335       -4.1632003382       -0.6013242457
 C          0.2431358050       -4.2366730370       -0.9481764177
 C          1.1430208151       -3.4502681940        0.0054465732
 H          2.1760617229       -3.6287332617       -0.3036397041
 H          0.9598579052       -2.3799088649       -0.1210367413
 C          0.9802335935       -3.8199114307        1.4864273502
 H          1.9727609978       -3.9015083469        1.9341979364
 H          0.5005556208       -4.7959996916        1.5758101354
 C          0.2052769590       -2.7894932401        2.3104666505
 H          0.3660240519       -3.0083595498        3.3699315582
 H          0.6075237606       -1.7932312073        2.1117853458
 C         -1.3105390020       -2.7507507060        2.0773009936
 H         -1.7227768781       -3.7600929605        2.1514661667
 H         -1.7523434362       -2.1382923213        2.8689703177
 H          0.3861200251       -3.8373483567       -1.9551589269
 H          0.5432450997       -5.2866765538       -0.9506230907
 H         -1.4510547282       -4.7341267583        0.3031445328
 H         -1.8247344543       -4.5889973460       -1.4256391562
 O         -2.0808460736       -2.1637899044       -1.5655111440
 C         -2.5017055427       -0.8450503424       -1.5965988227
 O         -2.8019546610       -0.4264168615       -2.7351919808
 H         -0.4148282129        1.0519532190       -0.9848134332
 C         -0.5965509401        1.9046382239       -0.3459644503
 C         -1.8961650720        2.2077138062        0.0373127677
 C         -2.1063966348        3.3198528142        0.8426651001
 C         -1.0347633064        4.0837347145        1.2725564038
 C          0.2614841857        3.7492102421        0.9262624168
 C          0.4803077344        2.6474435350        0.1071546818
 N          1.7799854166        2.2698159394       -0.2837130236
 S          2.0884822592        0.6046301760       -0.3008427466
 O          1.6409332002        0.0586027979       -1.5586922358
 O          1.5602144459       -0.0032357234        0.8970892501
 C          3.8710932067        0.6007158616       -0.2585940927
 C          4.5565421459        0.9597459279       -1.4040147497
 C          5.9416247702        0.9866677783       -1.3745706102
 C          6.6143647784        0.6551241558       -0.2074256285
 C          5.9128601530        0.2934897603        0.9326383707
 C          4.5268976114        0.2664892405        0.9106312705
 H          3.9377910983       -0.0131362813        1.7693424224
 H          6.4380696421        0.0324629113        1.8371845173
 H          7.6924755111        0.6760405408       -0.1875518335
 H          6.4903014536        1.2643955661       -2.2599773367
 H          3.9900877723        1.1992560738       -2.2889058536
 H          2.4946977540        2.7607876928        0.2378744734
 H          1.0966431524        4.3317423671        1.2847765717
 H         -1.2111780021        4.9423505182        1.9026687087
 H         -3.1079356132        3.5817848895        1.1426379798
 C         -3.0080844970        1.3134730238       -0.4574008184
 H         -3.1755427951        1.5359040394       -1.5224229099
 C         -4.3111246591        1.5014369318        0.2920301915
 C         -5.2971805642        2.5394334091       -0.1504441215
 C         -5.5892830075        1.0864478317       -0.3704817270
 H         -6.3515948439        0.6136340672        0.2301384498
 H         -5.5189317010        0.6940453579       -1.3748861804
 H         -5.0405288561        3.1383564257       -1.0112121448
 H         -5.8650899103        3.0650102821        0.6023769341
 H         -4.2099142315        1.3052293882        1.3532175505
 O         -2.1966255999       -0.0787940314        1.9290073451
