  62
        -98.93735030
 C         -2.4543791662       -0.9275621788       -0.1162566732
 C         -3.5888701943       -0.8421890759        0.7221166995
 C         -4.7167563957       -0.0332465908        0.2276245978
 C         -4.6115851674        0.5851071759       -0.9638016677
 C         -5.5996268088        1.4318952209       -1.7392565623
 C         -6.8698176568        1.9571546152       -1.0756352868
 C         -6.6358001195        3.0157334260        0.0019237484
 H         -6.2901977071        3.9324353160       -0.4824963922
 H         -7.5924121659        3.2336642532        0.4816882020
 C         -5.6132469310        2.6498476271        1.0747278348
 H         -4.6323594570        2.5124139468        0.6150159996
 H         -5.5309963649        3.4969956127        1.7611128841
 C         -5.9506907439        1.4124680017        1.9037777439
 H         -6.9429060900        1.5244954954        2.3452341983
 H         -5.2262257198        1.3551398705        2.7208017962
 C         -5.9000905887        0.0748237884        1.1462414506
 H         -6.8252621557       -0.1081146474        0.6051166303
 H         -5.7884357689       -0.7257081785        1.8835238421
 H         -7.4570271511        1.1329137234       -0.6816699410
 H         -7.4660187181        2.4193284399       -1.8671478937
 H         -5.0246844768        2.2768690712       -2.1314017104
 H         -5.8870480973        0.8276931635       -2.6068651702
 O         -3.4891707046        0.4777442725       -1.7350013179
 C         -2.3916886575       -0.2698010292       -1.3426771743
 O         -1.4500976445       -0.2680784394       -2.1577190125
 O         -3.6622308374       -1.4238379246        1.8383096128
 C         -1.2708364356       -1.7664373415        0.3286128035
 C         -0.0291331661       -0.9150882485        0.4216397078
 C         -0.0606707731        0.2325120612        1.2104012574
 C          1.0560283499        1.0350661345        1.3380786801
 C          2.2327287168        0.7124606213        0.6836494261
 C          2.2786657579       -0.4323940890       -0.0978689229
 C          1.1540848267       -1.2396565312       -0.2215282830
 H          1.2093567282       -2.1255592727       -0.8349149647
 N          3.4697734904       -0.7656137692       -0.7652905972
 S          4.8895289885       -0.8328141580        0.1276792747
 O          5.7429915838       -1.7564128302       -0.5876685587
 O          4.6257270214       -1.1435209177        1.5134669858
 C          5.5695515574        0.8065511732       -0.0120692589
 C          5.8473796789        1.5356180757        1.1274206402
 C          6.3920282752        2.8036110450        0.9956399687
 C          6.6485294707        3.3165383689       -0.2665954539
 C          6.3652261827        2.5706754839       -1.4012439211
 C          5.8218149269        1.3022037496       -1.2762925012
 H          5.5921607722        0.6895115627       -2.1321012501
 H          6.5661441305        2.9731429471       -2.3810746900
 H          7.0724682642        4.3032275069       -0.3670242701
 H          6.6137674705        3.3847894304        1.8763345071
 H          5.6282594458        1.0971830164        2.0880629534
 H          3.3868217392       -1.5716924971       -1.3677709070
 H          3.1075343496        1.3354132483        0.7756007831
 H          1.0120355340        1.9222093160        1.9516900961
 H         -0.9788845085        0.4854934685        1.7231946478
 H         -1.5215417305       -2.1093350192        1.3435504947
 C         -1.1223366320       -2.9775034167       -0.5681003050
 C         -0.4628019099       -4.2209036815       -0.0523833184
 C         -1.9437496574       -4.1967248272       -0.2799529031
 H         -2.3478702756       -4.7546973085       -1.1112318501
 H         -2.5948260300       -4.1635795354        0.5812231911
 H          0.1492440479       -4.8004262419       -0.7274845197
 H         -0.1045285001       -4.2106902801        0.9661071857
 H         -0.9739636207       -2.7109056721       -1.6089175834
