  62
        -98.94735681
 C         -1.7882819623       -1.1857278542       -0.4385944175
 C         -1.2375021632       -1.8496581424        0.6872069391
 C         -0.1005568337       -2.7466254876        0.4096710114
 C          0.3632339103       -2.8706247970       -0.8458420836
 C          1.5460025148       -3.6985796922       -1.2547777202
 C          2.8472326298       -2.8859340641       -1.2158960104
 C          3.0780917415       -2.1374893379        0.0970741612
 H          2.3396875495       -1.3396002341        0.2004933915
 H          4.0553154659       -1.6535082337        0.0290152138
 C          3.0284360246       -3.0167544051        1.3536477861
 H          3.8583738424       -2.7387522276        2.0067440408
 H          3.1625379214       -4.0656363645        1.0841200181
 C          1.7471465814       -2.8583307992        2.1752015950
 H          1.5538465257       -1.7957758659        2.3456850201
 H          1.9093586340       -3.3215721412        3.1528348302
 C          0.4860851604       -3.4932395081        1.5742399187
 H         -0.2852187840       -3.4903701286        2.3503487584
 H          0.6920316062       -4.5306583650        1.2988511025
 H          2.8258319622       -2.1525641147       -2.0251845209
 H          3.6806149530       -3.5677595356       -1.3953192577
 H          1.6243686801       -4.5597719330       -0.5939199242
 H          1.3797477097       -4.0492439177       -2.2749677362
 O         -0.1872923041       -2.2173075674       -1.9007515862
 C         -1.2624366016       -1.3634153246       -1.7223164020
 O         -1.6623344378       -0.8249849605       -2.7739398292
 H         -0.9686764246        0.6870594767        1.3077482703
 C         -1.3429284293        1.4758872129        0.6733183790
 C         -2.3687905293        1.2198016083       -0.2248671715
 C         -2.8495581639        2.2646716765       -1.0050844808
 C         -2.3052979539        3.5316055214       -0.8968293001
 C         -1.2496493434        3.7711818109       -0.0355601410
 C         -0.7603328369        2.7330665238        0.7488017417
 N          0.3333691144        2.9345326503        1.6105950575
 S          1.6282048706        1.8744556008        1.5353156172
 O          1.2502603959        0.5850945820        2.0473363260
 O          2.6908107788        2.5578403361        2.2403376745
 C          2.0372228952        1.7618823902       -0.1968086193
 C          1.3461353756        0.8749506935       -0.9972435007
 C          1.6319159883        0.8262107834       -2.3522762887
 C          2.6064710871        1.6583768810       -2.8809614965
 C          3.2972818535        2.5409125023       -2.0637095978
 C          3.0075746296        2.6000781743       -0.7102000774
 H          3.5230312642        3.2665387477       -0.0377234682
 H          4.0571395918        3.1833908602       -2.4785351800
 H          2.8269968895        1.6151510680       -3.9358786594
 H          1.0796996557        0.1425723931       -2.9793267234
 H          0.5940739181        0.2353348692       -0.5618637028
 H          0.6725196143        3.8862052336        1.6270051409
 H         -0.8034650937        4.7518843019        0.0294953270
 H         -2.6897631004        4.3352718945       -1.5057726326
 H         -3.6433449173        2.0744883880       -1.7115472015
 C         -2.9264614516       -0.1784743017       -0.3680925797
 H         -3.4348185738       -0.2302093103       -1.3416038923
 C         -3.9498806221       -0.4497555918        0.7156321415
 C         -5.3528975430        0.0431498154        0.5329516071
 C         -5.0570885380       -1.4239925967        0.4547480576
 H         -5.3767753912       -2.0645840509        1.2625979465
 H         -5.0852969174       -1.8993127097       -0.5151990269
 H         -5.5907578244        0.5591821255       -0.3847356491
 H         -5.8815499537        0.4157932086        1.3967245449
 H         -3.5342711951       -0.4277216804        1.7142986144
 O         -1.6554377445       -1.7254818260        1.8679490159
