  62
        -98.93521118
 C         -1.7280666093       -1.0532964406       -0.1135828375
 C         -3.1034191417       -1.3475258009        0.0669533917
 C         -4.0511564228       -0.2859651110       -0.2972999895
 C         -3.5862198216        0.8888129867       -0.7581158189
 C         -4.4048514951        2.0593550661       -1.2352598511
 C         -5.2763259312        2.7618891350       -0.1764462571
 C         -6.7207364686        2.2510867772       -0.1059940200
 H         -7.3880192179        3.1033799472        0.0375915212
 H         -6.9836353682        1.8068416663       -1.0668579686
 C         -7.0215638388        1.2542039952        1.0173346924
 H         -7.1196852466        1.7977135302        1.9598761459
 H         -7.9871100327        0.7905786707        0.8037899542
 C         -5.9808382722        0.1546123127        1.2292243242
 H         -6.4021684323       -0.5874219381        1.9103899719
 H         -5.1039806297        0.5707479505        1.7309910491
 C         -5.5110230566       -0.5435070692       -0.0618361191
 H         -5.6255110528       -1.6249229395        0.0369916280
 H         -6.1010451467       -0.2123122125       -0.9152989827
 H         -5.3026717615        3.8199636606       -0.4417478390
 H         -4.7965501968        2.6855901014        0.7989084000
 H         -5.0371100166        1.7290267027       -2.0627151741
 H         -3.6824649915        2.7749641814       -1.6332465663
 O         -2.2562794747        1.1441102732       -0.8845110720
 C         -1.2953363162        0.1969425083       -0.5549093539
 O         -0.1268849800        0.5998936878       -0.6982960076
 O         -3.5204467044       -2.4504852090        0.5102143609
 C         -0.7239620023       -2.1347062421        0.2400687631
 C          0.4035478291       -1.5678831675        1.0658392843
 C          0.1061321880       -1.0207154227        2.3121444945
 C          1.1023790414       -0.4963107834        3.1114506030
 C          2.4196714203       -0.5099815261        2.6865237201
 C          2.7291804285       -1.0567314612        1.4475748661
 C          1.7242765549       -1.5839361367        0.6459491282
 H          1.9912992506       -1.9757913367       -0.3207443398
 N          4.0658937068       -1.1246186793        1.0133128810
 S          4.5421366560       -0.4986699614       -0.4633518097
 O          3.7793242126       -1.0987625892       -1.5255932265
 O          5.9725297105       -0.7175233047       -0.5022946531
 C          4.2240297576        1.2528126677       -0.3438701420
 C          5.2890836588        2.1012193547       -0.1067359069
 C          5.0489826401        3.4570793910        0.0423313578
 C          3.7508162081        3.9389538230       -0.0376180309
 C          2.6942162403        3.0726605007       -0.2704134736
 C          2.9256138725        1.7139115914       -0.4258581222
 H          2.1105202410        1.0313630220       -0.6068985214
 H          1.6803523169        3.4353387786       -0.3322939229
 H          3.5605804064        4.9941763286        0.0812840455
 H          5.8705411907        4.1317047337        0.2223602317
 H          6.2806250606        1.6812293252       -0.0540627770
 H          4.7352669774       -0.8462959201        1.7174145377
 H          3.2017360471       -0.1035752952        3.3100105667
 H          0.8540624274       -0.0723294887        4.0727633123
 H         -0.9238225533       -1.0095148574        2.6429708855
 H         -1.2898372278       -2.8338395452        0.8792144995
 C         -0.2373744342       -2.9410067485       -0.9547554284
 C         -1.1020105319       -3.1471972357       -2.1613606104
 C          0.1307091236       -2.3017852191       -2.2585326584
 H          0.9872712223       -2.6849068375       -2.7943114296
 H          0.0187714357       -1.2320629654       -2.3413416165
 H         -1.1007889353       -4.1184819186       -2.6327611917
 H         -2.0624786580       -2.6528683452       -2.1812391533
 H          0.3641924065       -3.7919132358       -0.6481869425
