  62
        -98.94443894
 C         -1.7669662509       -0.7672238792        0.0105150601
 C         -2.9468915709       -1.2414247294        0.6329578999
 C         -4.2040332809       -0.9228025390       -0.0521634700
 C         -4.1768735708       -0.2445537284       -1.2139136897
 C         -5.3736015008        0.1379964520       -2.0420085195
 C         -6.0525286407        1.4381023319       -1.5895913390
 C         -6.8431388107        1.3386296113       -0.2843370890
 H         -7.5389830208        0.5013518014       -0.3456696494
 H         -7.4373081306        2.2507300514       -0.1998119286
 C         -5.9744097908        1.1974039107        0.9734204709
 H         -6.3370955607        1.8803913204        1.7449695612
 H         -4.9483475507        1.4933194607        0.7418411511
 C         -5.9613283309       -0.2058291496        1.5802478703
 H         -6.9623500009       -0.4605086797        1.9351337302
 H         -5.2899806809       -0.1998910000        2.4427814003
 C         -5.4884209109       -1.3050787892        0.6196255998
 H         -6.2592551509       -1.5147283788       -0.1213630003
 H         -5.3032076910       -2.2118768695        1.2003832094
 H         -6.7393565106        1.7406765523       -2.3834268488
 H         -5.2899947806        2.2150758018       -1.4964821986
 H         -5.0131889907        0.2754721025       -3.0637570695
 H         -6.0999325908       -0.6750949779       -2.0357822599
 O         -3.0191244708        0.1696460717       -1.7948994395
 C         -1.7904927108       -0.0526607386       -1.1868923695
 O         -0.8196803108        0.4201835716       -1.8080404493
 H          2.1342072692       -0.1213617196        0.1742119305
 C          1.5362818892        0.5837300502        0.7261100808
 C          0.2227727892        0.2845156402        1.0519757106
 C         -0.5171116608        1.2228905199        1.7685300811
 C          0.0375761793        2.4339833497        2.1306794516
 C          1.3435224194        2.7365419198        1.7860311718
 C          2.0951095693        1.8051479900        1.0809247914
 N          3.4357023293        2.0670997201        0.7681142115
 S          4.1189374893        1.5467551807       -0.6676263787
 O          5.3156648994        2.3533621206       -0.7948025783
 O          3.1934683893        1.6109850912       -1.7729952787
 C          4.6036668792       -0.1363449395       -0.3500888495
 C          4.3600145491       -1.1009197991       -1.3071694499
 C          4.7846861090       -2.3998968692       -1.0731993005
 C          5.4413964590       -2.7090789298        0.1082870594
 C          5.6772849590       -1.7280985503        1.0596274998
 C          5.2598267791       -0.4270559101        0.8298488404
 H          5.4294350592        0.3622974095        1.5425955908
 H          6.1861296590       -1.9736104607        1.9776992397
 H          5.7680978389       -3.7211894199        0.2879520889
 H          4.6009200190       -3.1631553289       -1.8130661208
 H          3.8332931992       -0.8182550086       -2.2054235398
 H          3.7581161794        2.9907236999        1.0177200719
 H          1.7777941294        3.6855642696        2.0616382222
 H         -0.5508918206        3.1524661595        2.6814172019
 H         -1.5387897308        0.9874744599        2.0345735509
 C         -0.4324069009       -1.0244173396        0.6864107900
 H         -0.6820670310       -1.5499885100        1.6207336098
 C          0.4391179290       -1.9284855893       -0.1580907004
 C          1.4384778389       -2.8299591097        0.5015008693
 C          0.2006444589       -3.4071969993       -0.1147536310
 H          0.2919671389       -3.9698504289       -1.0315857213
 H         -0.5817023411       -3.7633210395        0.5395216988
 H          1.4997117389       -2.7990425302        1.5786914893
 H          2.3850795089       -2.9977205595        0.0108902592
 H          0.6926938391       -1.4893018489       -1.1170256201
 O         -2.9484024110       -1.8943210399        1.7107456196
