  62
        -98.93921838
 C          2.4141708313        1.0034655882        0.0498820877
 C          2.2443847459       -0.3425691646       -0.3556361064
 C          3.1762009822       -1.3118194569        0.2370556974
 C          4.0894079308       -0.9087696914        1.1378847007
 C          5.0817378829       -1.7854169491        1.8520895271
 C          6.3602479946       -2.0635911676        1.0496748668
 C          6.1922378078       -3.0214848820       -0.1304506174
 H          5.7018777645       -3.9338094698        0.2105153941
 H          7.1946322299       -3.2960250154       -0.4649466361
 C          5.4198211611       -2.4324615397       -1.3191011859
 H          5.9480319827       -2.6634495387       -2.2469601845
 H          5.3901249366       -1.3439390805       -1.2310465933
 C          3.9913524889       -2.9556975256       -1.4690938957
 H          4.0144556219       -4.0248645841       -1.6913323559
 H          3.5272698588       -2.4452852693       -2.3168758061
 C          3.1041398671       -2.7322821009       -0.2374984030
 H          3.3911205016       -3.4150696913        0.5617214717
 H          2.0684942691       -2.9372992371       -0.5189996313
 H          7.0898256866       -2.4947303991        1.7390608007
 H          6.7623346997       -1.1124997048        0.6929348401
 H          4.6085288986       -2.7292846840        2.1242968726
 H          5.3579742071       -1.2580454700        2.7676658196
 O          4.2015794839        0.3883076560        1.5278211929
 C          3.3923160997        1.3681213307        0.9823012385
 O          3.6345813099        2.5176919269        1.4016268853
 O          1.3666372692       -0.7465314605       -1.1657207551
 C          1.5689205459        2.1520617349       -0.4804570087
 C          0.2238976064        2.2074705900        0.2051858488
 C         -0.1255870674        3.2939344180        0.9980523926
 C         -1.3628884464        3.3447250126        1.6162527938
 C         -2.2728721855        2.3138227100        1.4642317563
 C         -1.9314760119        1.2218422661        0.6765976162
 C         -0.6945802617        1.1793867739        0.0483116343
 H         -0.4282363116        0.3245241478       -0.5561018627
 N         -2.8261566313        0.1373034815        0.5385896207
 S         -4.3703820593        0.4644598881       -0.0611782261
 O         -4.2899774738        0.9588720282       -1.4196800474
 O         -5.0608936455        1.3118213092        0.8770305219
 C         -5.0781570334       -1.1696000615       -0.0397161828
 C         -5.0967567914       -1.9196337169       -1.1996125484
 C         -5.6252432283       -3.2004769827       -1.1610158016
 C         -6.1198343738       -3.7070794756        0.0312174969
 C         -6.0933436613       -2.9418252968        1.1877799285
 C         -5.5671377999       -1.6604527620        1.1555878365
 H         -5.5323435847       -1.0273007495        2.0266118892
 H         -6.4801847241       -3.3393864603        2.1121918001
 H         -6.5304448098       -4.7040878952        0.0583246573
 H         -5.6487738699       -3.7969366497       -2.0588776111
 H         -4.7089535535       -1.4829324643       -2.1061561540
 H         -2.4117689392       -0.5924294170       -0.0283816178
 H         -3.2416103875        2.3483354302        1.9347181264
 H         -1.6215735254        4.1958633906        2.2281640073
 H          0.5846965297        4.0965247132        1.1363876332
 H          2.1151739788        3.0666227277       -0.2134883349
 C          1.4066196864        2.1175053061       -1.9883374439
 C          1.0598798797        3.3830801854       -2.7102554350
 C          2.4290210943        2.7896583484       -2.8519075041
 H          2.6979860864        2.3253504116       -3.7888065592
 H          3.2525026262        3.2850071711       -2.3578674620
 H          0.3837548511        3.3281418087       -3.5497540788
 H          0.9555001229        4.2820904224       -2.1215846949
 H          0.9766588865        1.1952172835       -2.3558200744
