  62
        -98.93690572
 C         -2.4227416614       -1.2501478844        0.1267953465
 C         -2.2901233925        0.0232556040       -0.4803167439
 C         -3.5481764978        0.6724155167       -0.8788652088
 C         -4.7239679337        0.0573819833       -0.6621906078
 C         -6.0836161369        0.5836676320       -1.0341518496
 C         -6.6807618712        1.5519601388       -0.0036865620
 C         -6.0300007614        2.9350224397        0.0441989758
 H         -5.9990906522        3.3560209683       -0.9611589117
 H         -6.6799306168        3.5738872040        0.6453550255
 C         -4.6213569978        2.9517204386        0.6543921325
 H         -4.4553655990        2.0288485627        1.2149496950
 H         -4.5417289902        3.7764126301        1.3661359185
 C         -3.4918784595        3.1209881959       -0.3619234710
 H         -2.5386470472        3.0751976745        0.1714902669
 H         -3.5670983438        4.1029569064       -0.8344981939
 C         -3.4669275589        2.0511476584       -1.4612731972
 H         -4.2806097549        2.2161498423       -2.1673853660
 H         -2.5165468538        2.1311517321       -1.9954079491
 H         -7.7370160201        1.6794960850       -0.2513800863
 H         -6.6243393096        1.0884645475        0.9838778567
 H         -6.0334610101        1.0713189843       -2.0080508871
 H         -6.7417204931       -0.2843488553       -1.1125023633
 O         -4.8093414699       -1.1636086134       -0.0697095283
 C         -3.6729270886       -1.8289092437        0.3615345071
 O         -3.9039289937       -2.9113831402        0.9360946654
 O         -1.1919455517        0.6022710810       -0.6853062650
 C         -1.2149658021       -2.0340661900        0.6111575587
 C         -0.2459897103       -1.1119805457        1.3104688749
 C         -0.6800444997       -0.4307915495        2.4449795897
 C          0.1596123785        0.4418037024        3.1084323344
 C          1.4511001569        0.6491887507        2.6578504580
 C          1.8997385703       -0.0367720339        1.5350992707
 C          1.0541094772       -0.9156276175        0.8727936490
 H          1.4161766707       -1.4119466392       -0.0110637021
 N          3.2270385898        0.1257020656        1.1001155720
 S          3.6490198866       -0.0226095773       -0.5251609372
 O          2.9164559283        0.9179569558       -1.3420336166
 O          3.5682391329       -1.4101147489       -0.9068047765
 C          5.3614698068        0.4689955147       -0.4223589567
 C          6.2973548180       -0.4623135038       -0.0142799260
 C          7.6239139483       -0.0765345026        0.0941896270
 C          7.9912685412        1.2270647111       -0.2050388095
 C          7.0416791750        2.1503204596       -0.6159044945
 C          5.7130515167        1.7707950640       -0.7251715920
 H          4.9420295846        2.4510957561       -1.0501227420
 H          7.3303272002        3.1620335113       -0.8515669874
 H          9.0244690288        1.5247607459       -0.1204991617
 H          8.3655694453       -0.7923094944        0.4101690849
 H          5.9665963314       -1.4654182183        0.1983716988
 H          3.6655588907        0.9434865264        1.5017805530
 H          2.1057397158        1.3380733296        3.1700629111
 H         -0.1950647021        0.9719217700        3.9798387844
 H         -1.6947346230       -0.5843732259        2.7885898896
 H         -1.6128271412       -2.7366724728        1.3629479807
 C         -0.5562250297       -2.8807658920       -0.4675698437
 C         -1.3409594692       -3.4238650302       -1.6230617684
 C         -0.3102803831       -2.3610474954       -1.8507723008
 H          0.6156349250       -2.6288197737       -2.3399633753
 H         -0.6388003027       -1.3576713812       -2.0729230893
 H         -1.1292681989       -4.4279962834       -1.9582955830
 H         -2.3834645597       -3.1492836484       -1.6948164709
 H          0.2058398739       -3.5370278874       -0.0570690002
