  62
        -98.93687128
 C         -1.7012744559       -0.0628642443        0.4444021207
 C         -2.9155721341       -0.2335480079        1.1504480212
 C         -4.1363111586        0.1742741079        0.4430255946
 C         -4.0436267355        0.7019285364       -0.7909136777
 C         -5.1774560315        1.2286184039       -1.6308870320
 C         -6.2205784203        0.1943563074       -2.0966244730
 C         -7.4456463160        0.0749242009       -1.1815183015
 H         -7.5633061373        1.0080727721       -0.6292376495
 H         -8.3372911389       -0.0361547615       -1.8019233448
 C         -7.4342556219       -1.1017711400       -0.2010671089
 H         -7.6911954473       -2.0169011407       -0.7394471230
 H         -8.2165874522       -0.9264774232        0.5405756141
 C         -6.1119665637       -1.3531164604        0.5237066896
 H         -6.2926670954       -2.0761502005        1.3215453641
 H         -5.4008983264       -1.8207076074       -0.1614159273
 C         -5.4523762621       -0.0917746089        1.1143588615
 H         -6.1130239526        0.7687358380        1.0198901373
 H         -5.2360836648       -0.2457980334        2.1734266417
 H         -5.7401895798       -0.7757627936       -2.2208461564
 H         -6.5623822802        0.5138200736       -3.0824345474
 H         -5.6802607905        2.0263614425       -1.0792541727
 H         -4.7043269039        1.6768647230       -2.5070496637
 O         -2.8517406751        0.8647369010       -1.4294217762
 C         -1.6566359306        0.4759955780       -0.8409972544
 O         -0.6505883445        0.6620328926       -1.5515205128
 H          2.2446289814       -0.1769177235        0.3729703321
 C          1.8330820387        0.7019125621        0.8384787201
 C          0.5119655910        0.7181126043        1.2564702975
 C          0.0183415152        1.8725275970        1.8604677413
 C          0.8231518173        2.9814758850        2.0289795584
 C          2.1382238588        2.9651398075        1.5965628110
 C          2.6435594852        1.8187546726        0.9977763901
 N          3.9857860416        1.7535757474        0.5909562299
 S          4.3788995694        1.1010060078       -0.9030083033
 O          5.7142706856        1.5998442178       -1.1621123792
 O          3.3851475897        1.4044691984       -1.9046486914
 C          4.4763556941       -0.6536495048       -0.6220639186
 C          5.2781749448       -1.1136661274        0.4040593238
 C          5.3879317763       -2.4801845972        0.6050488891
 C          4.7042404935       -3.3580833389       -0.2227897229
 C          3.9051483521       -2.8796391447       -1.2504756071
 C          3.7879511298       -1.5134112057       -1.4546323538
 H          3.1665606774       -1.0957146205       -2.2317274844
 H          3.3707454346       -3.5625398444       -1.8920277616
 H          4.7909211574       -4.4218274834       -0.0658900680
 H          6.0055949124       -2.8574160701        1.4039155670
 H          5.7981412237       -0.3997678767        1.0204266670
 H          4.5145027427        2.5974727230        0.7611967880
 H          2.7677432294        3.8331788752        1.7224012181
 H          0.4247041419        3.8695316276        2.4964006459
 H         -1.0101159836        1.8864804273        2.1950528490
 C         -0.4028906162       -0.4728743908        1.1148655968
 H         -0.6933346694       -0.7959163820        2.1260901027
 C          0.2291084188       -1.6454766104        0.3959496647
 C          1.0887657464       -2.6105577895        1.1549195205
 C         -0.2725373625       -3.0269615564        0.6874241474
 H         -0.3476553921       -3.7298385448       -0.1285070464
 H         -1.0609824394       -3.1228399584        1.4196634331
 H          1.2267667647       -2.4277601392        2.2096672280
 H          1.9530577068       -3.0291655961        0.6623467667
 H          0.4935301841       -1.4141738189       -0.6302559455
 O         -2.9754878330       -0.6938223400        2.3222200010
