  62
        -98.94219711
 C         -2.5368043743       -0.4868693786       -0.5004794113
 C         -1.5050707149        0.3219874487       -1.0360668320
 C         -1.6637706411        1.7720007807       -0.8592624940
 C         -2.7595323777        2.2486692282       -0.2425773351
 C         -3.0152859240        3.6961075862        0.0582220176
 C         -2.4806134445        4.0786006901        1.4456361007
 C         -1.0435762294        3.6256672073        1.7084348639
 H         -1.0058473860        2.5337412726        1.7457012256
 H         -0.7678267587        3.9835193825        2.7031000849
 C         -0.0164945101        4.1278372278        0.6841557563
 H          0.8662700211        4.4801010986        1.2217686636
 H         -0.4251784399        4.9771260512        0.1344777497
 C          0.4623520340        3.0616938289       -0.3031812377
 H          0.7759362889        2.1722549812        0.2516748128
 H          1.3437037455        3.4498122121       -0.8216928817
 C         -0.5586338523        2.6511389838       -1.3726836415
 H         -0.0329612671        2.0638571536       -2.1305437876
 H         -0.9661451745        3.5434955247       -1.8519552572
 H         -3.1237153002        3.6235344222        2.2025599042
 H         -2.5452464199        5.1630158633        1.5528252009
 H         -4.0928974547        3.8670929635        0.0355737047
 H         -2.5429508286        4.3101977210       -0.7059009558
 O         -3.7506573558        1.4458285033        0.2226113884
 C         -3.6471974854        0.0686057951        0.1425849704
 O         -4.5999584237       -0.5472659294        0.6603453554
 O         -0.4944874194       -0.1243328887       -1.6408290952
 C         -2.4367596178       -2.0075198308       -0.4829085541
 C         -1.3417349716       -2.3082889055        0.5109809418
 C         -1.6454557638       -2.3975350335        1.8665090211
 C         -0.6406623080       -2.4594669901        2.8150941140
 C          0.6875470204       -2.3918269088        2.4319544496
 C          0.9962666674       -2.3109501747        1.0821856622
 C         -0.0090377903       -2.3182122398        0.1277333685
 H          0.2503725816       -2.2468497927       -0.9163541410
 N          2.3463307310       -2.1293592800        0.7062982956
 S          2.9432783773       -0.6093537032        1.1784755908
 O          3.9851209530       -0.8314063990        2.1557562257
 O          1.8528147335        0.2289944826        1.6188016226
 C          3.6619525967        0.0479845668       -0.3167853228
 C          5.0296432377        0.2266681180       -0.3941502977
 C          5.5731307021        0.7467263719       -1.5581008405
 C          4.7433679150        1.0774940631       -2.6186477654
 C          3.3726160917        0.8891301020       -2.5252141806
 C          2.8198185247        0.3680112067       -1.3654400333
 H          1.7541003642        0.2156378900       -1.2708351521
 H          2.7249150531        1.1434850248       -3.3491658556
 H          5.1653408809        1.4847104829       -3.5239238681
 H          6.6385702295        0.8928468984       -1.6334480737
 H          5.6316161771       -0.0433868592        0.4580527236
 H          2.4698032751       -2.2369515622       -0.2923181745
 H          1.4868619007       -2.3646735120        3.1565627136
 H         -0.8939751323       -2.5252729913        3.8628554634
 H         -2.6827468986       -2.3768674342        2.1719771671
 H         -3.3887296324       -2.3727370631       -0.0775494122
 C         -2.2244467591       -2.6074836772       -1.8555272013
 C         -2.4091607080       -4.0832259707       -2.0393577604
 C         -3.4063299527       -3.1253662772       -2.6165639735
 H         -3.4295729373       -2.9864821249       -3.6869577768
 H         -4.3760059876       -3.0505719576       -2.1462990084
 H         -1.7486792284       -4.6066008596       -2.7134557370
 H         -2.7015930334       -4.6590699084       -1.1742244151
 H         -1.4481823165       -2.1182330951       -2.4287955444
