  62
        -98.94691111
 C         -0.5710790124       -1.7620461204       -0.6789774612
 C         -1.7285178314       -2.0084027622        0.1030310360
 C         -2.8668517339       -1.1054162628       -0.1016125704
 C         -2.7622310066       -0.1147156789       -1.0048769804
 C         -3.8414677115        0.8820871440       -1.3160266631
 C         -3.7156761657        2.1514176225       -0.4630334643
 C         -3.5035701011        1.8814921366        1.0267773892
 H         -2.5288476661        1.4087001124        1.1781127428
 H         -3.4590932417        2.8514499353        1.5288998711
 C         -4.5997883353        1.0243172141        1.6755966348
 H         -5.4961410439        1.0378610700        1.0536584635
 H         -4.8642686864        1.4704886057        2.6367522033
 C         -4.1989116908       -0.4253745091        1.9557296715
 H         -3.2380921004       -0.4416554252        2.4777183197
 H         -4.9450518421       -0.8599963489        2.6267289228
 C         -4.0966384502       -1.3396266376        0.7281404440
 H         -4.0260361453       -2.3713936209        1.0849948527
 H         -5.0003314184       -1.2460241682        0.1220670092
 H         -4.6195004808        2.7490445142       -0.5991117858
 H         -2.8680759777        2.7367910113       -0.8269444364
 H         -3.7613906233        1.1544120252       -2.3699935541
 H         -4.8104771687        0.4164413001       -1.1454179001
 O         -1.6393911005        0.0990400545       -1.7318760974
 C         -0.5051572280       -0.6875702411       -1.5668043031
 O          0.4545818152       -0.3178754768       -2.2702101907
 H          1.3731084449       -0.1036117348       -0.0493964689
 C          1.7652451859       -0.7559957912        0.7138331920
 C          1.4958609581       -2.1146708014        0.6655673470
 C          2.0366031147       -2.9354107236        1.6488085825
 C          2.8117620585       -2.4009499495        2.6624501549
 C          3.0328781880       -1.0369307282        2.7360540369
 C          2.4958877103       -0.2096178805        1.7573642481
 N          2.6650100591        1.1826694525        1.7946621298
 S          1.3657679173        2.1483078602        1.3522323829
 O          1.6028585695        3.4038702981        2.0380424102
 O          0.1023982370        1.5092072484        1.6417291075
 C          1.5527996771        2.4230414851       -0.3942084934
 C          0.4172056148        2.6634905082       -1.1390846187
 C          0.5432254886        2.9259886487       -2.4926748682
 C          1.8004186016        2.9464160131       -3.0738067991
 C          2.9326949911        2.7072672185       -2.3109683312
 C          2.8130129669        2.4459075932       -0.9558794792
 H          3.6710637762        2.2451591170       -0.3359232156
 H          3.9084556739        2.7163977602       -2.7699145009
 H          1.8960590744        3.1411308685       -4.1304549194
 H         -0.3393253095        3.0973575818       -3.0880922478
 H         -0.5424746763        2.6156011216       -0.6480697143
 H          3.1336774266        1.5378140794        2.6157023754
 H          3.6065033123       -0.6137363723        3.5465567139
 H          3.2268457460       -3.0488428516        3.4194482589
 H          1.8300966447       -3.9949244630        1.6275459223
 C          0.6152760206       -2.6759054735       -0.4273912676
 H          0.1864180358       -3.6163929498       -0.0532027419
 C          1.4417753747       -2.9825212282       -1.6608078151
 C          2.2114219077       -4.2660175575       -1.7302685371
 C          1.0001630079       -4.0707225457       -2.5909410558
 H          1.1328834788       -3.9236934004       -3.6519276455
 H          0.1001411921       -4.6108908900       -2.3349956707
 H          3.1828614536       -4.2563412726       -2.1996714494
 H          2.1326014195       -4.9471756130       -0.8968761633
 H          1.8873745010       -2.1014556722       -2.1034052575
 O         -1.8086216746       -2.9594720424        0.9284621698
