  62
        -98.93970818
 C         -2.4603662597       -0.2578054594        0.2616000299
 C         -3.6074909796       -0.1406393803        1.0816386102
 C         -4.7843582497        0.4755564603        0.4553308411
 C         -4.7019227400        0.9054984717       -0.8172948184
 C         -5.8376322801        1.5059797326       -1.5931802476
 C         -6.6189412402        0.4286194934       -2.3584682987
 C         -7.0097826600       -0.7762162176       -1.5026092000
 H         -7.5804777701       -1.4557607869       -2.1392130406
 H         -6.1041853799       -1.3056465479       -1.1978078307
 C         -7.8360118998       -0.4283453090       -0.2565261394
 H         -8.2668430299        0.5677875411       -0.3636811683
 H         -8.6659065798       -1.1338039091       -0.1782945801
 C         -7.0608714696       -0.5055408005        1.0600664103
 H         -7.7803090595       -0.4564591214        1.8817986805
 H         -6.5509091195       -1.4697169405        1.1291509692
 C         -6.0269123996        0.6037053193        1.2910988714
 H         -6.4938601197        1.5793401395        1.1412776326
 H         -5.6957280194        0.5377340082        2.3317442913
 H         -7.5167926203        0.8862872238       -2.7777930680
 H         -5.9995769503        0.0744856844       -3.1857062492
 H         -6.4998090500        2.0330541218       -0.9090052569
 H         -5.4253116102        2.2201812934       -2.3078789668
 O         -3.5747323501        0.7973495926       -1.5659242887
 C         -2.4282767800        0.2087451721       -1.0525117696
 O         -1.4728954601        0.1624482930       -1.8498302898
 O         -3.6432605294       -0.5285866117        2.2809781598
 C         -1.2076765596       -0.8917962600        0.8382762990
 C         -0.0682884197        0.0969526101        0.8015095999
 C         -0.2671677096        1.3635729095        1.3457186214
 C          0.7417095203        2.3064602096        1.3311593223
 C          1.9736076203        2.0092570402        0.7746581217
 C          2.1884064802        0.7459392609        0.2430938603
 C          1.1737998703       -0.2050802992        0.2679636894
 H          1.3566949702       -1.1822999287       -0.1509808618
 N          3.4315488101        0.4378490316       -0.3351261203
 S          4.8226616602        1.0022322508        0.4365212401
 O          4.7323403105        0.7625409691        1.8595982499
 O          5.0444135401        2.3712786612        0.0430761417
 C          6.0644703402       -0.0460653684       -0.2942697912
 C          6.5957381700        0.3052301930       -1.5207113409
 C          7.5440453599       -0.5222167763       -2.1008192420
 C          7.9420576801       -1.6803349570       -1.4494795634
 C          7.4000363203       -2.0193292984       -0.2188078437
 C          6.4504465103       -1.1968970591        0.3666956374
 H          6.0099761605       -1.4155536902        1.3262641572
 H          7.7135684904       -2.9188565790        0.2860398853
 H          8.6816212900       -2.3215276765       -1.9025256642
 H          7.9696209197       -0.2612708652       -3.0563348618
 H          6.2624626098        1.2186159835       -1.9851478198
 H          3.5115676001       -0.5392079482       -0.5805995614
 H          2.7692916902        2.7365087903        0.7527874824
 H          0.5696305904        3.2852227091        1.7541328534
 H         -1.2299975096        1.6003498290        1.7784047618
 H         -1.4442521294       -1.0979253812        1.8928932588
 C         -0.9116269197       -2.2024301292        0.1404980975
 C         -0.1720349695       -3.2908572299        0.8581618061
 C         -1.6378986795       -3.4359490897        0.5831634962
 H         -1.9560157196       -4.1441799289       -0.1671499246
 H         -2.3276309194       -3.3353443706        1.4084218964
 H          0.5151395004       -3.9058797493        0.2967059553
 H          0.1359564206       -3.0984917711        1.8748540063
 H         -0.7410417398       -2.0779541180       -0.9231109924
