  62
        -98.93879669
 C         -1.6380412711       -1.5320862279        0.3194583318
 C         -1.2891513018       -0.4155488045       -0.4765259537
 C         -1.9651854469        0.8509949175       -0.1558348774
 C         -2.8150374366        0.8972631749        0.8848008878
 C         -3.6216691550        2.0930278402        1.3051175083
 C         -4.8204929144        2.2897709008        0.3552954842
 C         -4.7648220600        3.5751566277       -0.4703506576
 H         -5.5323246115        3.5012383728       -1.2436533273
 H         -5.0227979813        4.4201806081        0.1713466904
 C         -3.4177444161        3.8816629657       -1.1311853005
 H         -3.5980818374        4.6602827840       -1.8753646737
 H         -2.7350001407        4.3071439488       -0.3939988742
 C         -2.7237182246        2.6965369682       -1.8143052286
 H         -2.2696231745        3.0572036362       -2.7392773559
 H         -3.4514905160        1.9340064686       -2.0924479818
 C         -1.5969363325        2.0477407319       -0.9888087838
 H         -0.8282196129        1.6834346508       -1.6766783824
 H         -1.1256065378        2.7981157049       -0.3467052082
 H         -5.7452253128        2.2942583382        0.9342625338
 H         -4.8720630817        1.4275928984       -0.3128099195
 H         -2.9851714239        2.9754989281        1.3126893409
 H         -3.9674346052        1.9074496635        2.3225627573
 O         -3.0982642686       -0.1871871935        1.6533876541
 C         -2.5042277800       -1.4133710841        1.4071976106
 O         -2.8218491409       -2.3087652195        2.2171476860
 O         -0.4516352965       -0.4635981051       -1.4154914803
 C         -0.9706318932       -2.8836091189        0.1238901015
 C          0.5161044416       -2.6834879081       -0.0487171628
 C          1.2658592051       -3.2459264212       -1.0734000222
 C          2.6243137602       -2.9948270280       -1.1684480873
 C          3.2560717668       -2.1597001221       -0.2657961353
 C          2.5133081435       -1.5925230955        0.7634321554
 C          1.1658083249       -1.8832636044        0.8841886650
 H          0.6033668228       -1.4345780977        1.6911735530
 N          3.0945785615       -0.7016025418        1.6927298912
 S          2.5661126855        0.8895572764        1.6248193956
 O          3.3232770757        1.5817214136        2.6470153964
 O          1.1323272597        0.9397449374        1.7497093819
 C          3.0984233878        1.4562315626        0.0183330104
 C          2.3839738681        1.0840597289       -1.1026370447
 C          2.8575521580        1.4671580972       -2.3488814391
 C          4.0260605759        2.2051620248       -2.4535153860
 C          4.7318058324        2.5690476334       -1.3162853096
 C          4.2684153428        2.1871268095       -0.0680712465
 H          4.7812495337        2.4469298008        0.8440513346
 H          5.6399680710        3.1442584693       -1.3983012314
 H          4.3879428904        2.4976568453       -3.4266524859
 H          2.3046323149        1.1781177397       -3.2283221153
 H          1.4747036944        0.5114585989       -1.0005638689
 H          4.1059824980       -0.7061359382        1.6776007238
 H          4.3093250757       -1.9400666553       -0.3569815132
 H          3.1935936993       -3.4386643390       -1.9707865875
 H          0.7846944437       -3.8649035305       -1.8125405980
 H         -1.1269658624       -3.4150992524        1.0779038044
 C         -1.6001581229       -3.7440491912       -0.9621063256
 C         -3.0185698345       -3.5265102453       -1.3957048608
 C         -1.8925678340       -3.2086763253       -2.3304936853
 H         -1.7357657675       -3.8578915314       -3.1794895625
 H         -1.6554786143       -2.1739079993       -2.5181914834
 H         -3.6303122965       -4.3932498595       -1.5969186503
 H         -3.5594432996       -2.7068269034       -0.9445725181
 H         -1.2754748674       -4.7780899009       -0.9003771909
