  62
        -98.94717212
 C         -1.6128387397       -1.5667551781       -0.2479094859
 C         -2.7736381003       -1.2261958013        0.4935428709
 C         -3.5535255511       -0.0931146211       -0.0139438827
 C         -3.1576434224        0.5418758007       -1.1318085723
 C         -3.8606943245        1.6988073361       -1.7891902778
 C         -3.5119778118        3.0708343419       -1.1958254758
 C         -4.0833221274        3.3448203514        0.1956975148
 H         -3.9345189972        4.4071974210        0.3991510285
 H         -5.1588228596        3.1649383952        0.1872031861
 C         -3.4318970451        2.5285146256        1.3211616670
 H         -2.4826185438        2.1142261254        0.9735741407
 H         -3.2055088795        3.1850790141        2.1640726054
 C         -4.2996792859        1.3894424905        1.8566760970
 H         -5.1966022059        1.7998640684        2.3258568969
 H         -3.7317439526        0.8574147513        2.6240865504
 C         -4.7283999857        0.3699608380        0.7927193649
 H         -5.1495254380       -0.5011501958        1.3004448205
 H         -5.4920115888        0.7994335181        0.1445564343
 H         -2.4255972508        3.1757830737       -1.1698513686
 H         -3.9017438819        3.8281419658       -1.8800668957
 H         -3.5579810846        1.6915137660       -2.8387631878
 H         -4.9390238084        1.5444775211       -1.7400183858
 O         -2.0493986876        0.1727992408       -1.8259178608
 C         -1.2353863861       -0.8661051243       -1.3931153764
 O         -0.2389165162       -1.0541899878       -2.1173299260
 O         -3.1397942798       -1.8432772420        1.5279805008
 C         -0.7355166564       -2.6873939004        0.2884822068
 C          0.5125214061       -2.0407735568        0.8351908370
 C          0.5038053767       -1.5134353425        2.1237604601
 C          1.5945678967       -0.8174804265        2.6108518622
 C          2.7072983653       -0.6096886481        1.8140407458
 C          2.7177776960       -1.1207318036        0.5232471843
 C          1.6383471420       -1.8524762373        0.0484262409
 H          1.6588267873       -2.2330871440       -0.9601613053
 N          3.8164474148       -0.8527126543       -0.3156916333
 S          4.2928459895        0.7519960206       -0.3922464568
 O          4.8244531168        0.9367507157       -1.7247112216
 O          5.2125110313        1.0254519120        0.6853633684
 C          2.8108939228        1.7242604855       -0.1647197925
 C          1.7300922285        1.4982175279       -0.9931945539
 C          0.5798018929        2.2486895159       -0.8115567302
 C          0.5267860088        3.2079856451        0.1872892532
 C          1.6227386695        3.4263550971        1.0077085589
 C          2.7754513742        2.6783265676        0.8325244280
 H          3.6477152080        2.8107440635        1.4518865624
 H          1.5796179985        4.1737700998        1.7833666142
 H         -0.3731050301        3.7869521289        0.3282396971
 H         -0.2691261752        2.0614453196       -1.4509805382
 H          1.7715601587        0.7394076710       -1.7587454448
 H          3.7058757678       -1.2310833601       -1.2459082257
 H          3.5605834872       -0.0526344679        2.1661205865
 H          1.5755640092       -0.4213281156        3.6145530361
 H         -0.3793290345       -1.6425357317        2.7333747776
 H         -1.2960080706       -3.1200725093        1.1275111435
 C         -0.4742016518       -3.7720657101       -0.7340614325
 C          0.1005901543       -5.0793643218       -0.2793218355
 C         -1.3267256174       -5.0040314886       -0.7289625567
 H         -1.5941816951       -5.4484556363       -1.6759828874
 H         -2.1027388614       -5.0728906341        0.0191500203
 H          0.8154187832       -5.5789783167       -0.9151919155
 H          0.2943332994       -5.1967458136        0.7761586107
 H         -0.1664838174       -3.3931073057       -1.7006697678
