  62
        -98.93861457
 C          2.0777941142        0.9288179903       -0.4448132018
 C          3.1375921333        1.1707018216        0.4609130181
 C          4.4005231276        0.4441874526        0.2290334432
 C          4.4734982373       -0.4067453205       -0.8113560305
 C          5.6276159302       -1.2841943024       -1.2171154624
 C          5.7760994243       -2.5211643995       -0.3162268000
 C          5.6271683844       -2.2501795103        1.1786591450
 H          4.6515246598       -1.7973845208        1.3650803890
 H          5.6390463437       -3.2147132207        1.6932412093
 C          6.7193086654       -1.3788922819        1.7946133345
 H          7.6885349293       -1.8590916797        1.6422512067
 H          6.5340372448       -1.3401108532        2.8711317291
 C          6.8021283047        0.0578178449        1.2750135622
 H          7.4473599499        0.6145677431        1.9609533139
 H          7.2831418468        0.0953249733        0.3013217732
 C          5.4694140743        0.7989313393        1.2346588892
 H          4.9916898712        0.7300303548        2.2185415022
 H          5.6698027552        1.8670494712        1.0865885541
 H          6.7489446078       -2.9755111424       -0.5114401342
 H          5.0043763507       -3.2405083872       -0.6014519599
 H          5.4233168125       -1.6197366090       -2.2363098684
 H          6.5468149167       -0.7062434227       -1.2372680048
 O          3.4222813332       -0.6166579281       -1.6535991256
 C          2.2088674283        0.0296909035       -1.5021561659
 O          1.3594743238       -0.2740146727       -2.3619944892
 H         -1.1730864847        0.3689522365       -1.6934568197
 C         -1.1765285461        0.0782219565       -0.6551393306
 C         -0.2668380159        0.6447850146        0.2240018548
 C         -0.2798989596        0.2331192435        1.5542075395
 C         -1.1710154403       -0.7302278283        1.9878718078
 C         -2.0669958446       -1.3063013487        1.1041447811
 C         -2.0624572449       -0.9014919235       -0.2240497753
 N         -2.9643419886       -1.4841750280       -1.1274841801
 S         -4.5478034499       -1.7134247924       -0.6491277080
 O         -4.6465313826       -2.8993428055        0.1655889934
 O         -5.3166424378       -1.7243157636       -1.8738186140
 C         -4.9508927216       -0.2759410361        0.3284319978
 C         -4.8895457257        0.9617381047       -0.2810324959
 C         -5.1690814029        2.0925244970        0.4684771502
 C         -5.5014262797        1.9674196272        1.8089373661
 C         -5.5625985171        0.7177551993        2.4051951784
 C         -5.2834759689       -0.4169456650        1.6601099498
 H         -5.3187214208       -1.4072822182        2.0840843444
 H         -5.8234182164        0.6233082761        3.4469944033
 H         -5.7147228842        2.8501087377        2.3909257260
 H         -5.1235868017        3.0656465159        0.0065086932
 H         -4.6335327422        1.0238042503       -1.3264749026
 H         -2.8962956792       -1.1286792018       -2.0689154783
 H         -2.7548726327       -2.0742711410        1.4185915342
 H         -1.1670344916       -1.0406821725        3.0216133009
 H          0.4303628633        0.6715927161        2.2411480791
 C          0.7617101888        1.6549637327       -0.2196316626
 H          0.9504181804        2.3386201477        0.6189557158
 C          0.3464466816        2.4683603710       -1.4270602403
 C         -0.7111916498        3.5190351048       -1.2734803237
 C          0.7162771517        3.9186413078       -1.4929575372
 H          0.9962532873        4.3347160282       -2.4492444277
 H          1.2662653234        4.3322959522       -0.6604798225
 H         -1.4145571969        3.6656982130       -2.0787977014
 H         -1.1298007733        3.6603694724       -0.2887627325
 H          0.3798487343        1.9099212726       -2.3546286189
 O          3.0379380141        1.9647041971        1.4348826997
