  62
        -98.94526106
 C          2.1085199859        0.9327972436        0.0423492062
 C          2.8202434802        0.2553604694        1.0602162789
 C          3.4879213494       -0.9869618009        0.6565295058
 C          3.3485912065       -1.4397244717       -0.6030003207
 C          3.9322998661       -2.7121185053       -1.1550272578
 C          5.3861115499       -2.5806078420       -1.6293097840
 C          6.4246367753       -2.4549235604       -0.5139639703
 H          6.2868987603       -3.2662449790        0.2014901625
 H          7.4057230048       -2.5888108774       -0.9737212477
 C          6.4032661542       -1.1074980322        0.2211054861
 H          5.8547415472       -0.3757548158       -0.3763730634
 H          7.4241782012       -0.7340535407        0.3267411294
 C          5.7932227735       -1.1590376782        1.6218168300
 H          5.7961411609       -0.1468506289        2.0340993955
 H          6.4100234541       -1.7877089234        2.2676782742
 C          4.3517860875       -1.6834593044        1.6644413743
 H          4.3374358304       -2.7607229447        1.4992070959
 H          3.9397434050       -1.4758078167        2.6551862235
 H          5.6184353954       -3.4729790022       -2.2149988829
 H          5.4587180360       -1.7177054285       -2.2951940130
 H          3.8620861832       -3.5020174110       -0.4063545142
 H          3.3130892323       -2.9900767352       -2.0108883287
 O          2.6168070775       -0.7821846495       -1.5417074856
 C          1.9927024913        0.4232759908       -1.2515553164
 O          1.3789783535        0.9263009551       -2.2108680308
 H         -0.0901640842        0.2819261499        1.3929004190
 C         -0.6950947441        0.9422390492        0.7824139925
 C         -0.0926159776        2.0377424661        0.1744740811
 C         -0.8785175207        2.8755333998       -0.6042939854
 C         -2.2248316111        2.6054339154       -0.7829888534
 C         -2.8159581612        1.5070003655       -0.1869315346
 C         -2.0407777035        0.6684249122        0.6039269737
 N         -2.6362110843       -0.4504744867        1.2222136185
 S         -3.3494752790       -1.5784815092        0.1967450238
 O         -3.3397593769       -2.8214859892        0.9384128396
 O         -2.7095255149       -1.5986556980       -1.0989148684
 C         -5.0286020035       -1.0070382026        0.0452206273
 C         -5.5502223397       -0.7298814886       -1.2030540180
 C         -6.8619818354       -0.2912613321       -1.2979519847
 C         -7.6236025626       -0.1390009650       -0.1493953229
 C         -7.0848851973       -0.4237486751        1.0967408684
 C         -5.7749738024       -0.8639655268        1.1987458923
 H         -5.3182976140       -1.0997362288        2.1453552280
 H         -7.6803950342       -0.3038138048        1.9873412120
 H         -8.6433022621        0.2038341828       -0.2262562753
 H         -7.2820999270       -0.0696671271       -2.2658416595
 H         -4.9164714818       -0.8565761788       -2.0664198454
 H         -2.0127774593       -0.9247071690        1.8610279621
 H         -3.8620746188        1.2908035896       -0.3303278941
 H         -2.8217721841        3.2597478896       -1.3997059922
 H         -0.4350480440        3.7319769417       -1.0845446815
 C          1.3898339874        2.2267776483        0.3830156209
 H          1.5679371004        2.3850281323        1.4571337349
 C          1.9760839004        3.3908736473       -0.3858309404
 C          1.8797539954        4.7804759703        0.1673396545
 C          3.1989387937        4.0702830913        0.1510968210
 H          3.9550472626        4.3974254329       -0.5467429368
 H          3.5979561250        3.7066100448        1.0868626028
 H          1.3838751655        4.9055916716        1.1178654329
 H          1.7319161970        5.5998853271       -0.5195183507
 H          1.9086850818        3.2575405415       -1.4595905362
 O          2.8835116122        0.6624625732        2.2522260276
