  62
        -98.93285512
 C         -2.4718766790       -1.0830693729        0.5078295934
 C         -2.4283156003        0.2376739224       -0.0009642398
 C         -3.6049625516        1.0834500129        0.2819794683
 C         -4.6140958995        0.5962738024        1.0220059781
 C         -5.8794530275        1.2887246843        1.4629543545
 C         -6.6106224631        2.1569810886        0.4298854964
 C         -6.5099988855        1.6640763771       -1.0210111431
 H         -6.0997346672        0.6529932673       -1.0458139260
 H         -7.5125513087        1.6183900463       -1.4504652018
 C         -5.6618459824        2.5807517802       -1.9059363659
 H         -5.9240683895        2.4003677485       -2.9513019637
 H         -5.9162674127        3.6185337061       -1.6799643677
 C         -4.1497803591        2.3981662273       -1.7805230801
 H         -3.8563726014        1.4403010811       -2.2190570927
 H         -3.6663344860        3.1803877558       -2.3706636898
 C         -3.5927483077        2.4465221803       -0.3481509010
 H         -4.1261774782        3.1750270093        0.2573557450
 H         -2.5415212956        2.7418950432       -0.4051810476
 H         -7.6590026917        2.1887571486        0.7313764797
 H         -6.2383999977        3.1790824800        0.4836040014
 H         -6.5395923827        0.4851359062        1.7984102166
 H         -5.6444597372        1.8983755031        2.3403244665
 O         -4.5923087089       -0.6681464901        1.5326049670
 C         -3.5372137981       -1.5294477032        1.2932179878
 O         -3.6599947625       -2.6482265564        1.8313067775
 O         -1.4654799755        0.7085023216       -0.6579538025
 C         -1.3408713739       -2.0733335189        0.2859025220
 C         -0.0131275029       -1.4217807723        0.5828356062
 C          0.2934390243       -1.0994459960        1.9018731927
 C          1.4967041679       -0.5006536982        2.2222135014
 C          2.4198965119       -0.2070767499        1.2338654731
 C          2.1234057809       -0.5221346762       -0.0846197274
 C          0.9170553058       -1.1331673915       -0.4023121569
 H          0.6916748118       -1.3543405463       -1.4341474903
 N          3.0483932857       -0.2076509205       -1.0940063675
 S          4.6444935932       -0.6779940214       -0.8982908671
 O          5.1796479428       -0.7730000000       -2.2393652391
 O          4.7491790152       -1.8653966081       -0.0813695696
 C          5.4064994053        0.7014447142       -0.0693990978
 C          6.1061566654        0.4978265031        1.1037419880
 C          6.7056455352        1.5831556480        1.7237802449
 C          6.5963569536        2.8458048314        1.1617544664
 C          5.8913596184        3.0331880010       -0.0179799318
 C          5.2905903247        1.9523281565       -0.6432010903
 H          4.7363163559        2.0562375432       -1.5610915921
 H          5.8076531143        4.0168595863       -0.4514065657
 H          7.0632135409        3.6891059627        1.6457929139
 H          7.2540545888        1.4396021308        2.6409387295
 H          6.1601434500       -0.5010125877        1.5068068662
 H          2.7180904114       -0.4028819608       -2.0276318813
 H          3.3590230857        0.2638933552        1.4749046973
 H          1.7183678398       -0.2567170431        3.2502292763
 H         -0.4309952057       -1.3222555261        2.6739902879
 H         -1.5027360054       -2.8584429846        1.0426727417
 C         -1.3771327349       -2.7691254683       -1.0670788207
 C         -2.6845975534       -3.0973552822       -1.7224446365
 C         -1.7786177098       -2.0714826705       -2.3306273737
 H         -1.2581440422       -2.3269276381       -3.2426949270
 H         -2.0557106296       -1.0315196296       -2.2644622580
 H         -2.7881107426       -4.0527293367       -2.2144549623
 H         -3.5856554025       -2.7597197618       -1.2309474289
 H         -0.5951475061       -3.5184664757       -1.1528874922
