  62
        -98.94953172
 C         -1.5625839653        0.9225850587        0.7068466192
 C         -1.3713698937        1.7086600249       -0.4546273766
 C         -0.3024397527        2.7156283921       -0.3778423352
 C          0.4402521273        2.8062729254        0.7397660680
 C          1.5543085495        3.7897574048        0.9565760506
 C          2.9195016873        3.2272563903        0.5400989173
 C          2.9393619169        2.6019507502       -0.8548595036
 H          3.9680208242        2.2938857772       -1.0590330218
 H          2.3325132177        1.6934911962       -0.8661807359
 C          2.4516448207        3.5274283712       -1.9775306276
 H          2.4886305429        4.5676641176       -1.6501691407
 H          3.1301633407        3.4286639446       -2.8275705297
 C          1.0471333227        3.1994598006       -2.4887348167
 H          0.9739619592        2.1241027638       -2.6746721834
 H          0.9025659794        3.7110945974       -3.4445078853
 C         -0.1101026321        3.6104773507       -1.5690380482
 H          0.0193966430        4.6494937652       -1.2562252787
 H         -1.0359341447        3.5381376143       -2.1476183674
 H          3.6497641182        4.0380623223        0.5832207574
 H          3.2203375072        2.4644745470        1.2623829629
 H          1.3391558883        4.6945483676        0.3908577927
 H          1.5852227922        4.0373070249        2.0194701213
 O          0.2638268669        1.9938656497        1.8140727243
 C         -0.7332381795        1.0302381120        1.8217541323
 O         -0.7793268762        0.3461374870        2.8640905612
 H         -0.3255822871       -1.2873821839        0.2466473484
 C         -1.0723952221       -1.6365773396       -0.4514771418
 C         -2.3713341730       -1.1564659674       -0.3453129288
 C         -3.3282838639       -1.6294941953       -1.2328021699
 C         -2.9752872716       -2.5334683233       -2.2206208459
 C         -1.6692974144       -2.9677919547       -2.3546675152
 C         -0.7074292931       -2.5102174196       -1.4607875139
 N          0.6304127927       -2.9243647028       -1.5458848211
 S          1.8416828759       -1.8310798276       -1.1660658044
 O          1.4808819086       -0.4794130718       -1.5212804036
 O          3.0197821660       -2.3633664787       -1.8205063292
 C          2.0465907070       -1.9924120903        0.5940738187
 C          2.1915018452       -0.8590063245        1.3676577758
 C          2.3669766685       -0.9938476027        2.7350485334
 C          2.3995147876       -2.2580631784        3.3017598067
 C          2.2610050764       -3.3887140957        2.5106236798
 C          2.0837635417       -3.2590060428        1.1427405390
 H          1.9679602283       -4.1131912080        0.4966538829
 H          2.2852663132       -4.3696116980        2.9575107356
 H          2.5292060198       -2.3594258051        4.3676706941
 H          2.4583016703       -0.1119714377        3.3487605816
 H          2.1430591480        0.1080250189        0.8918134727
 H          0.8589059066       -3.4780543353       -2.3586796502
 H         -1.3922080581       -3.6496753421       -3.1441618506
 H         -3.7258107233       -2.8903429851       -2.9096801125
 H         -4.3457070362       -1.2816002000       -1.1614836577
 C         -2.6473004347       -0.1408663959        0.7365898135
 H         -2.5520714689       -0.6444951008        1.7099713298
 C         -4.0197078440        0.4912857479        0.6438386723
 C         -5.2048119697       -0.1864613522        1.2616580720
 C         -4.6417868042        1.0542427413        1.8851573158
 H         -5.2034321614        1.9731250068        1.8091823183
 H         -4.0838659581        0.9587515914        2.8054484197
 H         -6.1579706135       -0.1178399892        0.7594237375
 H         -5.0368522952       -1.1262867666        1.7653420828
 H         -4.1640276622        1.0384121967       -0.2805700854
 O         -2.0731071449        1.5957873252       -1.4939748904
