  62
        -98.93779023
 C          1.8187510143        0.0140163300       -0.3364637219
 C          2.9665361021       -0.4208858149       -1.0391247488
 C          4.2598914254        0.0996751229       -0.5666223931
 C          4.2865020798        0.9483677397        0.4753391432
 C          5.4783144323        1.6351375671        1.0946177595
 C          6.7489554757        0.8000042511        1.3042753987
 C          6.5065346470       -0.6825919844        1.6225810787
 H          7.0754345830       -0.9512696617        2.5146687598
 H          5.4515836585       -0.8495074924        1.8470144201
 C          6.9416611892       -1.6151932067        0.4895631578
 H          7.0921039208       -2.6173537887        0.8981709032
 H          7.9041618250       -1.2718939961        0.1040388637
 C          5.9548826130       -1.7429858198       -0.6702389517
 H          5.0695517364       -2.2951555919       -0.3437355466
 H          6.4318135986       -2.3368949532       -1.4535792302
 C          5.4758834734       -0.4160594607       -1.2813851422
 H          6.2750600434        0.3207938491       -1.3007012878
 H          5.1594714213       -0.6148583767       -2.3089495090
 H          7.2981454271        1.2637293655        2.1254948297
 H          7.3835664506        0.8741657655        0.4222882808
 H          5.1211928501        2.0069797881        2.0580385494
 H          5.7215052967        2.5093368628        0.4835344187
 O          3.1527084349        1.3456264186        1.1213827469
 C          1.8983138280        0.8927511159        0.7421863225
 O          0.9610854085        1.3402350042        1.4304455240
 O          2.9126782298       -1.1982074445       -2.0294185932
 C          0.4563672367       -0.4939811285       -0.7703241944
 C         -0.4626732725        0.6598294815       -1.0828797934
 C         -0.0013131190        1.6834803018       -1.9070775865
 C         -0.8068464749        2.7629816037       -2.2104278881
 C         -2.0920330896        2.8431447560       -1.7037166730
 C         -2.5699497672        1.8188128485       -0.8955068696
 C         -1.7598782535        0.7302975827       -0.5991210171
 H         -2.1442314238       -0.0450580801        0.0416157919
 N         -3.8866204997        1.8525277136       -0.4234549473
 S         -4.3924413707        1.0437747995        0.9436335817
 O         -5.6978718550        1.6085861907        1.2175805855
 O         -3.4381087292        1.1167326610        2.0244890096
 C         -4.6002386710       -0.6444705625        0.4144565681
 C         -4.3712542644       -1.6558089835        1.3262565054
 C         -4.5779872934       -2.9707089933        0.9386055049
 C         -5.0067879729       -3.2505057219       -0.3496111114
 C         -5.2327868177       -2.2235358390       -1.2531200378
 C         -5.0336347522       -0.9066973164       -0.8700857071
 H         -5.1998336308       -0.0866331004       -1.5481689492
 H         -5.5641512685       -2.4446738450       -2.2548839631
 H         -5.1630956257       -4.2744705426       -0.6499772363
 H         -4.4026510413       -3.7698391480        1.6414879886
 H         -4.0245981668       -1.3937654747        2.3136748881
 H         -4.3862072073        2.7157859897       -0.5732093744
 H         -2.7195607117        3.6913206607       -1.9307735783
 H         -0.4309835184        3.5537877432       -2.8422007983
 H          1.0059527919        1.6256398197       -2.2968178846
 H          0.6382326994       -1.0506768546       -1.7022127431
 C         -0.1022048429       -1.4502560949        0.2625318187
 C         -1.0129106328       -2.5641786794       -0.1574484430
 C          0.3892308036       -2.8657273377        0.2763892624
 H          0.5446381505       -3.3479361893        1.2298545177
 H          1.1111895936       -3.1444952140       -0.4772400962
 H         -1.8253367192       -2.8399904692        0.4975565580
 H         -1.2474354500       -2.6466205577       -1.2077407332
 H         -0.2821742735       -0.9711922261        1.2196824952
