  62
        -98.94475185
 C         -1.8676159904       -0.6714625007        0.4232653602
 C         -2.5046792705       -0.1582290898       -0.7326263293
 C         -3.5883148505        0.8023205600       -0.4857710283
 C         -3.8736308403        1.1837249090        0.7722410721
 C         -4.9371134503        2.1665743986        1.1807947531
 C         -6.3374100402        1.5510379785        1.3086630828
 C         -7.0160074004        1.1957065296       -0.0149182374
 H         -8.0630816804        0.9829449594        0.2097102025
 H         -6.9950318905        2.0621708802       -0.6766705467
 C         -6.4091425205       -0.0178420798       -0.7329467785
 H         -5.7999060704       -0.5902273304       -0.0296860291
 H         -7.2105306006       -0.6777762195       -1.0726160890
 C         -5.5591558607        0.3284838313       -1.9555906684
 H         -6.1891681808        0.7829528919       -2.7233885879
 H         -5.1492550308       -0.5994895684       -2.3621465792
 C         -4.3873760507        1.2746817010       -1.6624634378
 H         -4.7538334907        2.2871840809       -1.4941697168
 H         -3.7246983208        1.2818269118       -2.5314794479
 H         -6.9652542102        2.2768766081        1.8306110135
 H         -6.2705595102        0.6585595580        1.9351600020
 H         -4.6420731101        2.5566300778        2.1574348734
 H         -4.9649047204        2.9938885092        0.4709951638
 O         -3.1881064602        0.7192208280        1.8514818116
 C         -2.1865793302       -0.2277542618        1.7060124406
 O         -1.6523612800       -0.5792978927        2.7787400303
 O         -2.1907515107       -0.4819184588       -1.9065540696
 C         -0.7693097804       -1.7116350606        0.2882169292
 C          0.3978651395       -1.1269033600       -0.4702556905
 C          0.9896752693       -1.7381633391       -1.5668267611
 C          2.0533793192       -1.1338779785       -2.2161018708
 C          2.5567295993        0.0775995711       -1.7811721898
 C          1.9859407895        0.6864422002       -0.6696577392
 C          0.9197970796        0.0814309896       -0.0230191796
 H          0.4722571997        0.5587802989        0.8405045809
 N          2.5042781395        1.9058536798       -0.2031535683
 S          4.1666921795        2.0748686997       -0.1194793684
 O          4.3965211597        3.0369311988        0.9356155324
 O          4.6836543393        2.4315343608       -1.4173346581
 C          4.7845146796        0.4685207993        0.3524115602
 C          4.3403797698       -0.0771689317        1.5406355198
 C          4.7883902398       -1.3351122820        1.9090749287
 C          5.6690695797       -2.0224346613        1.0875613580
 C          6.1102841195       -1.4585130003       -0.0991857716
 C          5.6638460695       -0.2012548300       -0.4737085705
 H          5.9783983094        0.2732880208       -1.3888909602
 H          6.7964442695       -1.9942912398       -0.7349598522
 H          6.0127234198       -3.0030685215        1.3764077771
 H          4.4455129800       -1.7743755328        2.8322310683
 H          3.6582839699        0.4829540178        2.1605643604
 H          2.0548024497        2.2526918891        0.6309096221
 H          3.3721573192        0.5679084916       -2.2876197795
 H          2.4947396791       -1.6127591178       -3.0765564112
 H          0.6117768093       -2.6820518288       -1.9225697918
 H         -0.4307187902       -1.9274376115        1.3120920189
 C         -1.3209708505       -2.9829505101       -0.3211018918
 C         -0.6857775604       -4.3035598104       -0.0096739630
 C         -2.0260785203       -3.9621440209        0.5669172275
 H         -2.8992765104       -4.4692422405        0.1845571572
 H         -2.0875358302       -3.7236074918        1.6191174077
 H         -0.6401940805       -5.0506884297       -0.7874290337
 H          0.1649371897       -4.3044153309        0.6546146868
 H         -1.7267550406       -2.8282282793       -1.3138801516
