  62
        -98.94703379
 C          1.5184454948        1.0705744282        0.0818160468
 C          2.5296844930        0.6108478780        0.9556050108
 C          3.1017780903       -0.7039738672        0.6412841378
 C          2.6115622961       -1.4018557750       -0.4001195339
 C          3.1292944649       -2.7347082774       -0.8561828242
 C          4.2308986931       -2.5737982917       -1.9132374613
 C          5.3241995718       -1.5810781620       -1.5179075512
 H          4.8923806645       -0.5791565838       -1.4647652047
 H          6.0619262468       -1.5722288563       -2.3229691037
 C          6.0216788349       -1.9022170550       -0.1887836032
 H          7.0993057278       -1.7859622181       -0.3212050526
 H          5.8387110625       -2.9421772562        0.0838832331
 C          5.6163812520       -0.9956060924        0.9747679878
 H          5.7091175199        0.0507307834        0.6732812419
 H          6.3172569868       -1.1632172606        1.7968820510
 C          4.2026484803       -1.2122635572        1.5297838504
 H          4.1205589484       -0.6446912743        2.4618078703
 H          4.0536893853       -2.2695927468        1.7602899032
 H          3.7708550414       -2.2266894957       -2.8411848369
 H          4.6750262997       -3.5533133051       -2.0993181772
 H          2.2962824012       -3.2936258294       -1.2865619472
 H          3.5112140584       -3.2825900729        0.0033243415
 O          1.6111744471       -0.9459938128       -1.1934068105
 C          1.0284803029        0.2885643050       -0.9653473745
 O          0.1092915388        0.5788691799       -1.7545603903
 O          2.9286123052        1.2674784951        1.9578142686
 C          0.8701246612        2.4196564209        0.3422373128
 C         -0.6143900279        2.2255766781        0.5207646886
 C         -1.5787867526        3.0008059155       -0.1097903501
 C         -2.9242302542        2.7044402844        0.0302658912
 C         -3.3341739506        1.6181751094        0.7817634156
 C         -2.3774347360        0.8542892475        1.4356619841
 C         -1.0370566686        1.1758066153        1.3277061745
 H         -0.3004385165        0.5611716976        1.8314007758
 N         -2.7948283835       -0.3213365852        2.1298691135
 S         -2.5552457456       -1.6751941054        1.1417162428
 O         -3.0756117360       -2.8018904523        1.8886312007
 O         -1.1692416818       -1.7954182962        0.7384386612
 C         -3.6050557105       -1.3133558742       -0.2438803918
 C         -3.0804241887       -0.6766848133       -1.3512123417
 C         -3.9347998678       -0.3515118764       -2.3941113717
 C         -5.2831008370       -0.6631338561       -2.3111274591
 C         -5.7915781426       -1.3032207620       -1.1904169141
 C         -4.9463589239       -1.6293292768       -0.1426277238
 H         -5.2907852474       -2.1265715995        0.7491882017
 H         -6.8405455617       -1.5443831119       -1.1292055304
 H         -5.9409416831       -0.4046030705       -3.1259109925
 H         -3.5353347076        0.1496657906       -3.2611266611
 H         -2.0274660285       -0.4385046646       -1.3868269798
 H         -2.2712659891       -0.4719084918        2.9832716128
 H         -4.3745578099        1.3501345403        0.8664427853
 H         -3.6597709128        3.3117653616       -0.4737356707
 H         -1.2741138259        3.8286463706       -0.7289790366
 H          1.2979899361        2.7750702601        1.2916456880
 C          1.2256507438        3.4006404061       -0.7551287807
 C          1.2905034074        4.8700159806       -0.4660190357
 C          2.5516622669        4.0962726901       -0.7020362176
 H          3.0900225454        4.2511253799       -1.6249724997
 H          3.1891035013        3.8815667158        0.1433998390
 H          0.9655975717        5.5604405557       -1.2294885209
 H          1.0756474956        5.1911769125        0.5418514120
 H          0.8660506523        3.0820213927       -1.7272388364
