  62
        -98.93474085
 C         -2.3279729557       -0.6916076591       -0.0593816627
 C         -3.5093395921       -0.9734352972        0.6632875992
 C         -4.7711936302       -0.4802224740        0.0847400205
 C         -4.7416142381        0.2055236899       -1.0735645338
 C         -5.8580888195        0.7906498088       -1.9135400916
 C         -7.2660337387        0.9468643491       -1.3446157389
 C         -7.3923440905        1.9774472912       -0.2230843728
 H         -7.2464949833        2.9733778211       -0.6488218898
 H         -8.4096946680        1.9299621249        0.1712963095
 C         -6.4047167202        1.8217553844        0.9305687187
 H         -5.3863161155        1.9649061588        0.5633271454
 H         -6.6023201815        2.6210746149        1.6500338421
 C         -6.4797261151        0.4933687213        1.6807660318
 H         -7.5021167417        0.3207640224        2.0223311390
 H         -5.8417629073        0.5780106646        2.5647545536
 C         -6.0115182442       -0.7408308471        0.8903703762
 H         -6.8053339456       -1.1309734279        0.2581587641
 H         -5.7503676637       -1.5228915229        1.6092804035
 H         -7.6512088981       -0.0161256541       -1.0228715752
 H         -7.8992866280        1.2804689819       -2.1711978351
 H         -5.4962200374        1.7682421966       -2.2474768797
 H         -5.9146819212        0.1620310796       -2.8090799720
 O         -3.5728815230        0.4485907644       -1.7379947612
 C         -2.3469215130        0.0212344921       -1.2562186820
 O         -1.3768501907        0.3347289605       -1.9718167848
 O         -3.5132412936       -1.6129589780        1.7499702859
 C         -0.9965646287       -1.1728217978        0.4852211755
 C         -0.0644699937       -0.0068490235        0.7041442013
 C         -0.5238440511        1.0977690463        1.4183016233
 C          0.2981000952        2.1833396887        1.6473211496
 C          1.6025416979        2.1859543178        1.1844012184
 C          2.0718926623        1.0887873456        0.4735205703
 C          1.2397401245        0.0023484952        0.2377905040
 H          1.6328074667       -0.8331933098       -0.3163687224
 N          3.3835086148        1.0671544294       -0.0278575445
 S          4.2143399266       -0.4027959159       -0.0354137767
 O          3.8624749526       -1.1404011988       -1.2223532189
 O          4.0195586231       -1.0865048666        1.2234092290
 C          5.8948264933        0.1808295016       -0.1674459111
 C          6.3832786471        0.5224523695       -1.4145475726
 C          7.6779818910        1.0058161284       -1.5172333340
 C          8.4583184257        1.1392005480       -0.3782137404
 C          7.9552890644        0.7903120195        0.8661268915
 C          6.6606472489        0.3076111839        0.9762065984
 H          6.2306222563        0.0153529672        1.9207161984
 H          8.5655188275        0.8919392911        1.7490602770
 H          9.4657868218        1.5151277478       -0.4615446910
 H          8.0733471498        1.2755323695       -2.4832415197
 H          5.7431759658        0.3932355179       -2.2718221752
 H          3.9559316887        1.8168825896        0.3356777799
 H          2.2467675014        3.0329960461        1.3653757028
 H         -0.0757170329        3.0331460525        2.1987260807
 H         -1.5401624521        1.0920732195        1.7889878409
 H         -1.2228504562       -1.6159629947        1.4671892348
 C         -0.4179423497       -2.2487188173       -0.4089071880
 C          0.5212811731       -3.2722742500        0.1532132037
 C         -0.8706109823       -3.6664639514       -0.2374938476
 H         -1.0070579129       -4.2743056995       -1.1192462038
 H         -1.5846302681       -3.8668213726        0.5479557526
 H          1.3478692911       -3.6019141139       -0.4589764786
 H          0.7594168980       -3.2074282033        1.2045221617
 H         -0.2409761094       -1.8984690935       -1.4205073924
