  62
        -98.94257157
 C          1.8937264201        1.3159881595        0.4920348107
 C          1.5781803803        0.0936147096       -0.1539487096
 C          2.5253349404       -1.0094291204        0.0725720004
 C          3.5790110903       -0.8415259704        0.8900419305
 C          4.6131624903       -1.8785855304        1.2339590105
 C          5.7514712005       -1.9868090401        0.2102234906
 C          5.3700517707       -2.6400758999       -1.1187577096
 H          4.8882482208       -3.5991749500       -0.9261451298
 H          6.2997860308       -2.8446260197       -1.6534013695
 C          4.4670938507       -1.7781002398       -2.0121357495
 H          4.8455576808       -1.7951667396       -3.0367771695
 H          4.5067583105       -0.7393992199       -1.6755272394
 C          3.0073193507       -2.2293345900       -2.0617162698
 H          2.9459366909       -3.2189773499       -2.5198416699
 H          2.4553456007       -1.5317905599       -2.6973204097
 C          2.3111831706       -2.2795422403       -0.6949413499
 H          2.6673589606       -3.1362745403       -0.1234153400
 H          1.2377875106       -2.3905941504       -0.8671072200
 H          6.5462659105       -2.5806189901        0.6675021506
 H          6.1505790404       -0.9869591800        0.0237032708
 H          5.0414201502       -1.5834204205        2.1943416406
 H          4.1343552704       -2.8510519804        1.3511995603
 O          3.8176608701        0.3307025095        1.5350712007
 C          3.0007306900        1.4309227195        1.3410890508
 O          3.3545906198        2.4423146594        1.9791683510
 H         -0.9376684898        1.9737172595       -1.4231932995
 C         -1.2795402299        1.9213490593       -0.4016564196
 C         -0.4049867000        2.2171432792        0.6306505806
 C         -0.8585090102        2.1155418290        1.9418700105
 C         -2.1610797002        1.7356648788        2.2102327203
 C         -3.0271897400        1.4190627088        1.1780713601
 C         -2.5729712199        1.4948247791       -0.1322135598
 N         -3.4169224497        1.1180749492       -1.1887767900
 S         -4.4413831896       -0.1820485610       -0.9738018203
 O         -4.6282787794       -0.7390938308       -2.2965548604
 O         -5.6475177197        0.2671092888       -0.3190948204
 C         -3.6222679996       -1.3712078410        0.0821520396
 C         -4.4004925196       -2.0401305013        1.0071854894
 C         -3.8149677796       -2.9974597613        1.8190145893
 C         -2.4608631796       -3.2670086212        1.6966567094
 C         -1.6936676495       -2.5852839209        0.7658641696
 C         -2.2734910196       -1.6316636309       -0.0568772903
 H         -1.6679356995       -1.0901085907       -0.7667581501
 H         -0.6364418795       -2.7801592908        0.6760234697
 H         -1.9992291896       -4.0079224212        2.3302425794
 H         -4.4131829196       -3.5254252115        2.5440930292
 H         -5.4466138097       -1.7890025514        1.0773313493
 H         -2.9486225396        1.0673815694       -2.0818110899
 H         -4.0427458200        1.1107106287        1.3693832500
 H         -2.5035749603        1.6728208686        3.2318324102
 H         -0.1738931003        2.3316544789        2.7504267606
 C          1.0360162900        2.5653894794        0.3599584908
 H          1.3829688898        3.2334973693        1.1634306609
 C          1.2217559000        3.3237394196       -0.9469846991
 C          2.5972849201        3.5432279499       -1.5010759189
 C          1.6261378302        2.6676379499       -2.2313511991
 H          1.1940332503        3.0384649300       -3.1497680891
 H          1.7924682404        1.6022603199       -2.2294623893
 H          3.4195687501        3.0725743399       -0.9813147289
 H          2.8400775600        4.5088056100       -1.9182752887
 H          0.5308517399        4.1578455596       -1.0265953690
 O          0.5761210604       -0.0952456904       -0.8898952997
