  62
        -98.94378847
 C          0.8129910038        1.2649010611       -0.0909887439
 C          1.7107229786        1.0302464109        0.9813481333
 C          2.6153215115       -0.1138539122        0.8333148974
 C          2.5343284542       -0.8867896920       -0.2641400600
 C          3.4192676580       -2.0605914896       -0.5845264092
 C          4.7567692142       -1.6683209228       -1.2289595023
 C          5.7764290672       -1.0324188035       -0.2830918247
 H          5.8977137037       -1.6639485238        0.5974272843
 H          6.7338063423       -1.0181204041       -0.8079210366
 C          5.4328008517        0.3990851835        0.1514879891
 H          4.6861886226        0.8169947937       -0.5280504427
 H          6.3231739490        1.0272113294        0.0722857838
 C          4.9186700562        0.5204616542        1.5860567816
 H          4.6732812187        1.5688405933        1.7737540503
 H          5.7070143847        0.2294842273        2.2837966176
 C          3.6680746490       -0.3182689898        1.8807357954
 H          3.9313835499       -1.3725690961        1.9552910327
 H          3.2538257828        0.0103978887        2.8367572639
 H          5.1978072903       -2.5782638694       -1.6425664485
 H          4.5583581399       -0.9885671933       -2.0609985529
 H          3.6086576338       -2.6383530394        0.3197099000
 H          2.8696287538       -2.6820742917       -1.2926365655
 O          1.6089660695       -0.6771227296       -1.2370836637
 C          0.7441672804        0.4108205147       -1.1935941082
 O         -0.0131534642        0.4859453510       -2.1799578244
 O          1.7665290000        1.7614495208        2.0067912875
 C         -0.0495795209        2.5063524998       -0.0067930181
 C         -1.4827156230        2.2487012722        0.4017940125
 C         -2.2770287041        3.3171891207        0.8110991756
 C         -3.5847025385        3.1139479108        1.2071814234
 C         -4.1290405792        1.8416283288        1.2061371079
 C         -3.3466202351        0.7682872639        0.8007284758
 C         -2.0331068879        0.9776911810        0.4004261782
 H         -1.4412666985        0.1366693271        0.0738002035
 N         -3.8518304622       -0.5401587022        0.8335062200
 S         -3.4880144540       -1.6114183664       -0.3985529832
 O         -3.4514927943       -0.9544574466       -1.6833396094
 O         -4.4836260208       -2.6564140065       -0.2620014830
 C         -1.9049850132       -2.3074739805        0.0177139066
 C         -1.1331689873       -2.8160610020       -1.0069074878
 C          0.0594969276       -3.4488758560       -0.6969001722
 C          0.4629492759       -3.5515262243        0.6248863568
 C         -0.3189212149       -3.0260571348        1.6416706995
 C         -1.5211000778       -2.4065287064        1.3402781187
 H         -2.1535312443       -1.9905323049        2.1071862411
 H          0.0027305419       -3.0989950688        2.6681408714
 H          1.3915945672       -4.0447002244        0.8639353386
 H          0.6657842145       -3.8565976204       -1.4898796244
 H         -1.4717856348       -2.6923203856       -2.0234323736
 H         -4.8187017413       -0.6183486734        1.1147842038
 H         -5.1486101925        1.6770234668        1.5197344500
 H         -4.1881541531        3.9514916343        1.5218642741
 H         -1.8597714373        4.3117157149        0.8209469432
 H          0.4060790649        3.1132338430        0.7903871918
 C         -0.0164167533        3.3094411391       -1.2965489978
 C          0.0508279536        4.8056965758       -1.2634775601
 C          1.2486853223        4.0117404233       -1.6872727522
 H          1.5375641942        4.0122448322       -2.7274200531
 H          2.0827290850        3.9461251934       -1.0032059099
 H         -0.4909965096        5.3604926271       -2.0140541028
 H          0.0946565088        5.2911855318       -0.3002266180
 H         -0.5877840928        2.8461471029       -2.0923872240
