  62
        -98.94191139
 C         -1.1750576574       -1.5650046659        0.5031533357
 C         -2.1251565255       -1.2075062417       -0.4821225661
 C         -3.1695947918       -0.2570844923       -0.0642928155
 C         -3.1744773790        0.2118726045        1.1950214236
 C         -4.1563863427        1.1587386443        1.8381765452
 C         -4.5784909761        2.3948146943        1.0317772220
 C         -3.5037620764        2.9654780179        0.0942699332
 H         -3.4204026276        4.0409406568        0.2650759274
 H         -2.5257989600        2.5327369133        0.3183923048
 C         -3.8300009749        2.7531947390       -1.3862381225
 H         -3.2515580095        3.4695288449       -1.9748989883
 H         -4.8882093597        2.9728620418       -1.5472724963
 C         -3.5173561095        1.3622130207       -1.9353981764
 H         -3.8845321399        1.3153559137       -2.9637093352
 H         -2.4331627181        1.2203439091       -1.9747739895
 C         -4.1146550724        0.1877641542       -1.1423434887
 H         -5.0951897289        0.4379085490       -0.7445209530
 H         -4.2180477448       -0.6606066531       -1.8242957329
 H         -4.8689721333        3.1582769469        1.7556408544
 H         -5.4677902807        2.1621562306        0.4471094229
 H         -5.0494014443        0.5897952408        2.1135180881
 H         -3.6760454733        1.4766276939        2.7667278283
 O         -2.2454993792       -0.1698515625        2.1165199895
 C         -1.2084134931       -1.0250563700        1.7864351450
 O         -0.3921349251       -1.2259248472        2.7104466854
 H          0.4256527274        0.1511016273       -0.1774057138
 C          0.9579616575       -0.4215796320       -0.9201283043
 C          0.8276468294       -1.8024177573       -0.9406995554
 C          1.4987651810       -2.5127476877       -1.9285753399
 C          2.2626757100       -1.8453255447       -2.8708710619
 C          2.3925088702       -0.4680986523       -2.8413380127
 C          1.7287650167        0.2503548557       -1.8537822291
 N          1.8167836360        1.6482140031       -1.7752632651
 S          1.8014400843        2.3920866300       -0.2776176896
 O          0.4755635080        2.3727418088        0.2874190028
 O          2.3582367054        3.7043028741       -0.5302770856
 C          2.9435093407        1.4381979594        0.7069758875
 C          2.5003533174        0.6157105521        1.7216459247
 C          3.4260344676       -0.1481340812        2.4163999702
 C          4.7704423743       -0.0768964603        2.0890341978
 C          5.2023280945        0.7627424720        1.0728592745
 C          4.2822436748        1.5246351608        0.3730970680
 H          4.5790876555        2.1975170460       -0.4149137826
 H          6.2494299352        0.8218125089        0.8235896431
 H          5.4840978871       -0.6768887546        2.6312192729
 H          3.0779122785       -0.7973055125        3.2042509252
 H          1.4495906849        0.5681614947        1.9627380494
 H          2.4753251035        2.0764818631       -2.4084760458
 H          2.9887747113        0.0476238986       -3.5780608939
 H          2.7706247605       -2.4078135818       -3.6393453197
 H          1.4159114789       -3.5866949536       -1.9657619929
 C         -0.0052320672       -2.4580524621        0.1369449683
 H          0.6175072074       -2.5291765188        1.0420373166
 C         -0.4808289727       -3.8468780270       -0.2371964963
 C          0.3619095522       -5.0462463534        0.0740730917
 C         -0.8898627504       -4.7870542580        0.8555078485
 H         -1.7451891175       -5.4255680962        0.6937458973
 H         -0.7964619995       -4.4331707384        1.8722854292
 H          0.3649477812       -5.8691014762       -0.6248249337
 H          1.3073612904       -4.8805556106        0.5682012174
 H         -1.0675570270       -3.8521659950       -1.1482288735
 O         -2.1054618804       -1.6568682093       -1.6575713977
