  62
        -98.94489796
 C         -2.4368134473       -1.1308714876       -0.0510418771
 C         -3.1092826617       -0.3547653107        0.9306768503
 C         -3.6772220124        0.9187400893        0.4803145901
 C         -3.5562043066        1.2805020456       -0.8093657615
 C         -4.0810109420        2.5467861673       -1.4290112355
 C         -3.1488306226        3.7532855409       -1.2507538972
 C         -3.1048245083        4.3368144906        0.1621756582
 H         -2.5995380265        5.3021268366        0.0929831161
 H         -4.1217338871        4.5243300168        0.5084922655
 C         -2.3621248245        3.4655057428        1.1850526284
 H         -1.7355591205        2.7392064260        0.6603719975
 H         -1.6900071173        4.0922999794        1.7757109787
 C         -3.2703325236        2.7252058370        2.1674790073
 H         -3.7945199123        3.4482808358        2.7962568780
 H         -2.6411135445        2.1079927003        2.8135803543
 C         -4.3093946355        1.8112395371        1.5051815112
 H         -5.1014450622        2.4072617372        1.0527146042
 H         -4.7459386795        1.1730893099        2.2772418073
 H         -3.4916826939        4.5341984107       -1.9336573298
 H         -2.1397593558        3.4640730656       -1.5562721283
 H         -4.1889854590        2.3494176219       -2.4977245238
 H         -5.0630920395        2.7792132934       -1.0162824247
 O         -2.9341265693        0.4974032127       -1.7278195481
 C         -2.3313150687       -0.7010402510       -1.3736538039
 O         -1.7654157840       -1.2664603812       -2.3330738419
 O         -3.2319875299       -0.7173712402        2.1304485096
 C         -1.7826406705       -2.4156728504        0.4351268377
 C         -0.3204345800       -2.1430541536        0.6947739133
 C          0.1816589078       -2.0975365307        1.9901999214
 C          1.5050708844       -1.7657276129        2.2232547814
 C          2.3493317204       -1.4564346377        1.1713831429
 C          1.8536109818       -1.4929509938       -0.1248725713
 C          0.5368070557       -1.8533504776       -0.3579064686
 H          0.1575087793       -1.8579361287       -1.3692773384
 N          2.6962823035       -1.1135196314       -1.1998408816
 S          2.9441703560        0.5549473102       -1.2671171374
 O          1.7927943649        1.2812756839       -0.7767294090
 O          3.3507372242        0.8369828365       -2.6267820573
 C          4.3296651764        0.8013461766       -0.1772026175
 C          4.1691741599        1.5242804448        0.9882552671
 C          5.2602279917        1.6921122871        1.8270280648
 C          6.4841778099        1.1361797557        1.4872061997
 C          6.6289839363        0.4144333869        0.3113937720
 C          5.5428257411        0.2437239647       -0.5319134831
 H          5.6093806099       -0.3045452795       -1.4567112717
 H          7.5825295917       -0.0155499904        0.0505983069
 H          7.3304551292        1.2666305928        2.1430131959
 H          5.1493541846        2.2529154651        2.7411260461
 H          3.1962900350        1.9317618652        1.2125291332
 H          2.3239580152       -1.4085482408       -2.0934255229
 H          3.3776274993       -1.1836705236        1.3445931178
 H          1.8801504317       -1.7362727514        3.2347633042
 H         -0.4823403901       -2.3009372326        2.8177271869
 H         -2.2606493015       -2.6341507824        1.3994401920
 C         -1.9903227933       -3.6018672257       -0.4831454688
 C         -1.8188476068       -4.9837738396        0.0704778735
 C         -3.1861782003       -4.4813995346       -0.2810636370
 H         -3.6794918775       -4.8854681194       -1.1522367536
 H         -3.8606512229       -4.2297524658        0.5243097375
 H         -1.3705618904       -5.7374877644       -0.5582903357
 H         -1.5665615775       -5.0747774686        1.1160144150
 H         -1.6755597027       -3.4235779576       -1.5029070399
