  62
        -98.93483378
 C          1.9667113260        0.9328721242        0.6645689779
 C          1.8706199924        0.2551097203       -0.5743133932
 C          2.1118514774       -1.1998194681       -0.5464049010
 C          2.3460822121       -1.8055089483        0.6292070416
 C          2.6539082638       -3.2576283230        0.8722311624
 C          4.1728779020       -3.5018390224        0.8786871398
 C          4.7874179830       -3.7817201250       -0.4922062853
 H          5.8716782988       -3.8078045229       -0.3623064266
 H          4.4729502539       -4.7711769506       -0.8302284211
 C          4.4473576266       -2.7618535573       -1.5818004130
 H          4.5151404341       -1.7516768247       -1.1739966879
 H          5.2017644036       -2.8457056734       -2.3663030232
 C          3.0589904606       -2.9803905652       -2.2019498604
 H          2.6791834122       -3.9545581215       -1.8949658617
 H          3.1492199491       -3.0116747759       -3.2897251536
 C          2.0219123899       -1.8957765953       -1.8768623049
 H          2.0921420467       -1.0908481259       -2.6156312540
 H          1.0130433377       -2.3128720641       -1.9716689378
 H          4.6497307982       -2.6254039285        1.3250870031
 H          4.3866374359       -4.3547588204        1.5259426543
 H          2.2569332634       -3.4953643381        1.8616158855
 H          2.1550786769       -3.8830721598        0.1378234737
 O          2.3857044610       -1.1226158934        1.8082261164
 C          2.1814551051        0.2432080605        1.8584776684
 O          2.2158494266        0.7243319297        3.0104693675
 H         -0.6454212432        1.2109135996        1.0507736932
 C         -0.6998897688        1.9783179066        0.2904344723
 C          0.4276903641        2.7393861245        0.0055872809
 C          0.3373488107        3.7222703865       -0.9700319395
 C         -0.8483672602        3.9126296562       -1.6590502092
 C         -1.9543011055        3.1244535010       -1.4027463796
 C         -1.8762310009        2.1449669888       -0.4179339258
 N         -2.9872902595        1.3359093285       -0.1156352949
 S         -2.7150375741       -0.2540474007        0.3813352265
 O         -2.3862870215       -0.2513566358        1.7863942636
 O         -1.7761238719       -0.9149838351       -0.4971111540
 C         -4.3525489958       -0.9251606653        0.1565986013
 C         -4.6425363099       -1.6482025735       -0.9848139380
 C         -5.9292402347       -2.1323651619       -1.1631511411
 C         -6.8995677853       -1.8829583573       -0.2043752311
 C         -6.5934832195       -1.1557425670        0.9364970637
 C         -5.3087593484       -0.6703985664        1.1216094792
 H         -5.0202387820       -0.1088383813        1.9947902171
 H         -7.3495304533       -0.9657030426        1.6810476423
 H         -7.9000661866       -2.2598844539       -0.3459190701
 H         -6.1687944752       -2.7005803832       -2.0474519086
 H         -3.8533128477       -1.8219118430       -1.6988371712
 H         -3.7014036674        1.3757773806       -0.8306312869
 H         -2.8688512938        3.2579917903       -1.9603957877
 H         -0.9044028440        4.6735728754       -2.4227680791
 H          1.2013710982        4.3180603246       -1.2141760248
 C          1.6830392797        2.4217803761        0.7812896335
 H          1.4631158626        2.5818351790        1.8508711555
 C          2.8602689022        3.3227747887        0.4410853165
 C          4.2698216952        2.8300381799        0.5734265659
 C          3.7002914530        3.1160464258       -0.7818703859
 H          4.0563459740        3.9880406167       -1.3108175239
 H          3.4478620295        2.2867283602       -1.4228077773
 H          5.0122530963        3.5027934488        0.9759012466
 H          4.4116872124        1.7987901440        0.8637826457
 H          2.6833981259        4.3501742729        0.7443790221
 O          1.6105887037        0.8272132894       -1.6649919622
