  62
        -98.94318798
 C         -0.8207958410       -1.7005231068       -0.8483993843
 C         -1.9605905296       -2.0677953619       -0.0870107358
 C         -3.1063873124       -1.1556094102       -0.1462523489
 C         -3.0352605015       -0.0489440142       -0.9076398047
 C         -4.1260559140        0.9717571620       -1.0887639842
 C         -4.1842765456        2.0291161776        0.0218777503
 C         -4.7129050129        1.5349697253        1.3687159293
 H         -4.9078270151        2.4179144202        1.9805762174
 H         -5.6657435192        1.0253096595        1.2225386041
 C         -3.7446941404        0.6144275020        2.1249833918
 H         -3.6844395143        0.9261812402        3.1700870657
 H         -2.7416323975        0.7126545616        1.7028717129
 C         -4.1407441556       -0.8620281239        2.1155562752
 H         -3.3675054194       -1.4289861442        2.6404980167
 H         -5.0807859464       -0.9941684428        2.6561813301
 C         -4.2960763259       -1.4623208812        0.7122669870
 H         -4.3645429809       -2.5486902625        0.8094193803
 H         -5.2090223986       -1.0948865822        0.2439495289
 H         -3.1830625004        2.4406197162        0.1574762354
 H         -4.8369842923        2.8323264554       -0.3274707401
 H         -5.0893064919        0.4660704211       -1.1646012829
 H         -3.9235443812        1.4767173154       -2.0354402197
 O         -1.9365464587        0.2582231956       -1.6435954726
 C         -0.7966498156       -0.5412612318       -1.6255640649
 O          0.1217113904       -0.1064315183       -2.3421226896
 O         -2.0174680256       -3.1203951260        0.6043558242
 C          0.3833073529       -2.6176513580       -0.7353832379
 C          1.2492016381       -2.2021498632        0.4271165527
 C          1.6916484781       -3.1362937282        1.3566654725
 C          2.4800009158       -2.7462368652        2.4246047641
 C          2.8524356040       -1.4229517610        2.5758538908
 C          2.4123827044       -0.4798958322        1.6535580503
 C          1.6064962964       -0.8716126411        0.5947890969
 H          1.2664257206       -0.1337654939       -0.1154281911
 N          2.7511955122        0.8734737191        1.7875949005
 S          3.0890147038        1.7781378796        0.4171069786
 O          3.7176776949        0.9717851749       -0.6019049044
 O          3.8784234458        2.8873751981        0.9148948509
 C          1.5201635370        2.4161592617       -0.1225613267
 C          1.2509785119        2.5046993900       -1.4725273965
 C          0.0588639499        3.0827460997       -1.8796251060
 C         -0.8342227735        3.5615734119       -0.9357036818
 C         -0.5490169478        3.4626213639        0.4186088644
 C          0.6403242816        2.8868833929        0.8326120293
 H          0.8964467298        2.7934138508        1.8751402924
 H         -1.2473484788        3.8346600673        1.1521734662
 H         -1.7592327123        4.0133576714       -1.2592540402
 H         -0.1690833060        3.1433228125       -2.9314270235
 H          1.9607549145        2.1028256145       -2.1773116054
 H          3.3883425679        1.0834701297        2.5423247102
 H          3.4742124619       -1.1168941582        3.4033935431
 H          2.8137465034       -3.4797749294        3.1426920712
 H          1.4009672115       -4.1705312399        1.2450114799
 H         -0.0356756972       -3.6078768493       -0.4926600126
 C          1.1710937645       -2.7704000336       -2.0273930256
 C          2.4707390166       -2.0811387640       -2.3002540553
 C          2.4491793877       -3.5564888714       -2.0424717337
 H          2.6345158810       -4.2289224805       -2.8664883106
 H          2.8330538620       -3.9017543121       -1.0942136157
 H          2.6435403828       -1.7321672722       -3.3073141072
 H          2.8836057886       -1.4226868423       -1.5510489238
 H          0.5133355975       -2.8967150676       -2.8820508755
