  62
        -98.94599921
 C          1.9849468636        0.3578941433        0.5138001278
 C          1.6909739619       -0.8123680112        1.2575890598
 C          1.8429602639       -2.0886621826        0.5508699089
 C          2.1868822668       -2.0907529434       -0.7493763868
 C          2.3903349757       -3.3071501737       -1.6114124849
 C          1.0892616112       -3.8697375115       -2.1997974458
 C          0.2027295736       -4.6217322257       -1.2065446667
 H         -0.5478493265       -5.1584138942       -1.7902637704
 H          0.7999888533       -5.3657183161       -0.6774445710
 C         -0.5159415438       -3.7174938419       -0.1954985270
 H         -1.5630423091       -4.0216097799       -0.1165185475
 H         -0.5162080604       -2.6897599634       -0.5693960296
 C          0.0734149509       -3.7532337636        1.2149951940
 H         -0.0384507790       -4.7579973953        1.6291254911
 H         -0.4988015184       -3.0672989079        1.8435555692
 C          1.5526874512       -3.3549452845        1.3008080238
 H          1.7986158436       -3.1807186369        2.3515358102
 H          2.1796782145       -4.1636497099        0.9250157201
 H          1.3629711750       -4.5556990336       -3.0051868137
 H          0.5205779907       -3.0460658844       -2.6397803024
 H          2.9004391271       -4.0840211714       -1.0405544212
 H          3.0368542131       -2.9984418718       -2.4358631169
 O          2.4152652334       -0.9474240482       -1.4438512805
 C          2.2900962890        0.3005601973       -0.8481198894
 O          2.4920876111        1.2482551742       -1.6306914983
 O          1.3155113336       -0.7922842321        2.4611220954
 C          1.7924737733        1.7016481263        1.2004269310
 C          0.9008786974        2.5519863282        0.3312754928
 C          1.2398425925        3.7973463684       -0.1767578348
 C          0.3813470672        4.4459598229       -1.0489812048
 C         -0.8052409031        3.8610277316       -1.4503975364
 C         -1.1574681945        2.6167574314       -0.9365433511
 C         -0.3255307544        2.0016831279       -0.0196640803
 H         -0.5957186693        1.0376433054        0.3801955358
 N         -2.3462435801        1.9814694998       -1.3188041634
 S         -2.5110843503        0.3159443515       -1.2795611273
 O         -1.2669292264       -0.3795158829       -1.5102054168
 O         -3.5737201226        0.0486750809       -2.2267794417
 C         -3.1282936482        0.0170880174        0.3641856589
 C         -2.3647982848       -0.6545609580        1.2962559276
 C         -2.8728303970       -0.8442370476        2.5719823820
 C         -4.1327258798       -0.3634484286        2.8916700598
 C         -4.8923790406        0.3042336384        1.9422474802
 C         -4.3874387761        0.4987346686        0.6673564903
 H         -4.9461957366        1.0047076071       -0.1021498459
 H         -5.8730084611        0.6749160693        2.1935322131
 H         -4.5227972227       -0.5117406712        3.8862035898
 H         -2.2735076889       -1.3586898227        3.3067139196
 H         -1.3851697329       -1.0148592254        1.0211936859
 H         -2.8286732710        2.3987634784       -2.1001813181
 H         -1.4486579754        4.3521347526       -2.1645125222
 H          0.6561896032        5.4112639337       -1.4469534681
 H          2.1868982180        4.2442744112        0.0775761013
 H          1.2389890637        1.4569726979        2.1230262609
 C          3.0738799089        2.3930456844        1.6357529037
 C          4.3086041413        1.6012916296        1.9443214167
 C          4.2757069247        2.5022037114        0.7480504382
 H          4.8529774604        3.4148259669        0.7805042048
 H          4.2146394500        2.0588181224       -0.2330047449
 H          4.9075910999        1.8922317010        2.7941711765
 H          4.2707731722        0.5340562656        1.7792996381
 H          2.8736331343        3.2396070967        2.2855231522
