  62
        -98.94473424
 C          1.8163351944        0.5067144544       -0.5316527989
 C          2.8560427705        1.3008601485        0.0089520653
 C          4.2199732690        0.8168335128       -0.2300260611
 C          4.4133974102       -0.3051707973       -0.9471392987
 C          5.7452136188       -0.9111728673       -1.2984340492
 C          6.3312375664       -1.8093983722       -0.2004240268
 C          6.8647860198       -1.0708899299        1.0277689430
 H          7.5561616157       -0.2903622174        0.7086571400
 H          7.4371887897       -1.7938196563        1.6124309948
 C          5.7761452127       -0.4631006150        1.9232433026
 H          5.9918127709       -0.6971501746        2.9682029345
 H          4.8127823746       -0.9202718316        1.6853342809
 C          5.6435577511        1.0562158986        1.8172297300
 H          6.5593647721        1.5298523067        2.1776188881
 H          4.8226758811        1.3747596557        2.4646822436
 C          5.3544034075        1.5676720103        0.3997191938
 H          6.2496741988        1.4935327707       -0.2170685468
 H          5.0607697111        2.6180065056        0.4671963953
 H          7.1547074740       -2.3727193587       -0.6454666948
 H          5.5670236852       -2.5265950904        0.1081233716
 H          6.4555646791       -0.1203810913       -1.5412178801
 H          5.5833821848       -1.5195975392       -2.1908643660
 O          3.3869209319       -1.0296650067       -1.4675031238
 C          2.0660520842       -0.6585666248       -1.2562767910
 O          1.2303160210       -1.4321112258       -1.7613269098
 O          2.6529709230        2.3599700018        0.6605353797
 C          0.3765275844        0.9371263379       -0.3128064478
 C         -0.3768728581       -0.1466510368        0.4157620411
 C          0.1557939606       -0.6379323537        1.6063581621
 C         -0.4753578881       -1.6504648122        2.3000205986
 C         -1.6615881677       -2.1868769765        1.8295291423
 C         -2.2078761842       -1.6971676771        0.6501356086
 C         -1.5712188987       -0.6761431171       -0.0455799004
 H         -2.0081142869       -0.3300680719       -0.9670466725
 N         -3.4064353663       -2.2253654004        0.1532980945
 S         -4.5011787620       -1.2635612670       -0.6527101229
 O         -5.7615970137       -1.9621414745       -0.5117514780
 O         -4.0717864427       -1.0188966323       -2.0064564498
 C         -4.5586511297        0.2736513396        0.2535490314
 C         -4.5311483471        1.4639751270       -0.4427173289
 C         -4.5886489778        2.6572510118        0.2597217138
 C         -4.6706767578        2.6390023927        1.6430162477
 C         -4.7038566469        1.4345867144        2.3291707116
 C         -4.6511824867        0.2391861951        1.6310948812
 H         -4.6820133949       -0.7093222964        2.1415018086
 H         -4.7696220719        1.4234629020        3.4051794849
 H         -4.7098431556        3.5683095610        2.1891033430
 H         -4.5655097440        3.5935978108       -0.2745910902
 H         -4.4595275671        1.4316855369       -1.5177112596
 H         -3.8559869917       -2.9108385553        0.7411796470
 H         -2.1528880011       -2.9859962099        2.3633079536
 H         -0.0442347758       -2.0261898647        3.2156630313
 H          1.0831836466       -0.2189731514        1.9724762369
 H          0.4336276862        1.8175729152        0.3445368061
 C         -0.2522437688        1.3520309145       -1.6251643391
 C         -1.3534291836        2.3675564451       -1.6474554481
 C          0.0118248187        2.7322738882       -2.1456551809
 H          0.1583212516        2.8640981116       -3.2072408571
 H          0.6237965265        3.3812445448       -1.5364139827
 H         -2.1452591708        2.2449885691       -2.3707513461
 H         -1.6762697942        2.7748427934       -0.7014726944
 H         -0.2871039147        0.5437549989       -2.3477573830
