  62
        -98.93431866
 C         -2.0165540589       -0.3236283343       -0.1929397954
 C         -3.0913817024       -1.2456959555       -0.2592182829
 C         -4.3388201753       -0.8407214884        0.3994121957
 C         -4.3876169570        0.3432416907        1.0365389788
 C         -5.6069674898        0.9061606681        1.7063010381
 C         -6.4237224578        1.7716360427        0.7365729190
 C         -6.6996167784        1.0999789988       -0.6087199639
 H         -7.3075295230        1.7901161497       -1.1978523666
 H         -5.7550155523        0.9694053015       -1.1417853339
 C         -7.4157651790       -0.2541188379       -0.5077752894
 H         -7.8824434754       -0.3541394967        0.4728117339
 H         -8.2148413808       -0.2836507800       -1.2515260367
 C         -6.5196933523       -1.4662960546       -0.7685547284
 H         -5.9785148413       -1.3262100399       -1.7077035086
 H         -7.1610081565       -2.3435223394       -0.8884488011
 C         -5.5008426683       -1.7913605251        0.3309556022
 H         -6.0076756862       -1.8500709056        1.2962405322
 H         -5.0720964620       -2.7724332191        0.1068735145
 H         -5.8729181895        2.6966118942        0.5505054021
 H         -7.3690858209        2.0300743095        1.2171490470
 H         -5.2836079294        1.5235557316        2.5459936594
 H         -6.2183555692        0.0884016488        2.0829329079
 O         -3.3303910109        1.1896754381        1.1033917292
 C         -2.1211543486        0.8922579846        0.4842120861
 O         -1.2568653567        1.7748314790        0.6256812021
 O         -3.0068575415       -2.3607406971       -0.8414575224
 C         -0.7171733125       -0.7173224279       -0.8873860301
 C          0.4200369610       -0.6206466532        0.0951705123
 C          0.5278468331       -1.6649231276        1.0165242503
 C          1.4927079148       -1.6612682580        2.0032376766
 C          2.4052184537       -0.6232220844        2.0789618684
 C          2.3123386463        0.4197639487        1.1691404764
 C          1.3187164173        0.4295622572        0.1980068885
 H          1.2699352903        1.2843009998       -0.4504533313
 N          3.2454868472        1.4814200386        1.1849100777
 S          4.2861260901        1.5401739297       -0.1251709109
 O          5.2786062544        2.5367624450        0.2091102613
 O          3.5360320477        1.7526415836       -1.3341914422
 C          5.0371988059       -0.0792376992       -0.1508722920
 C          4.3607549359       -1.1203832631       -0.7554614591
 C          4.9050055849       -2.3937642988       -0.6999687029
 C          6.1084554995       -2.6036099201       -0.0442175865
 C          6.7766123954       -1.5475064988        0.5566839586
 C          6.2344842533       -0.2731870478        0.5098271310
 H          6.7199610572        0.5776164392        0.9602853689
 H          7.7136358298       -1.7133131095        1.0634837943
 H          6.5275593310       -3.5965665534       -0.0027678821
 H          4.3838816561       -3.2146519380       -1.1657446414
 H          3.4281857291       -0.9211652486       -1.2585461033
 H          3.7850958634        1.5309899345        2.0381299176
 H          3.1730007378       -0.6159017550        2.8382018238
 H          1.5446578681       -2.4758243602        2.7092598147
 H         -0.1782587874       -2.4818354867        0.9557112857
 H         -0.8503863989       -1.7906672356       -1.0993298950
 C         -0.6371596558       -0.0537327182       -2.2560641805
 C         -0.4377379643        1.4094180844       -2.5084463147
 C          0.6057341669        0.4238037744       -2.9442560283
 H          0.7000238563        0.2249054444       -4.0020948673
 H          1.5473523673        0.4170092485       -2.4192049973
 H         -1.0516092182        1.8788503700       -3.2647531370
 H         -0.2389448628        2.0520451809       -1.6655669978
 H         -1.3697279731       -0.5217837172       -2.9111293663
