  62
        -98.94494521
 C         -1.8706992481       -0.7356930617       -0.1597650536
 C         -2.4244884052       -0.0846512954        0.9677847378
 C         -3.4861883510        0.8915529711        0.6903687161
 C         -3.8353963193        1.1372056717       -0.5859146331
 C         -4.9366140822        2.0648139923       -1.0088302483
 C         -6.2721280800        1.3181581744       -1.1341277528
 C         -6.6129198302        0.4531936863        0.0794784191
 H         -7.5891841177        0.0009938449       -0.1077922167
 H         -5.8894493893       -0.3621708702        0.1503905990
 C         -6.6493975977        1.2147426516        1.4118834442
 H         -6.7382149871        2.2855106295        1.2245895593
 H         -7.5388447031        0.9081331344        1.9662967550
 C         -5.4470765867        0.9576434258        2.3220769973
 H         -5.2997060866       -0.1189981822        2.4384186161
 H         -5.6753300099        1.3654959519        3.3104202225
 C         -4.1207769043        1.5790991595        1.8666515814
 H         -4.2638156724        2.6421383479        1.6613599201
 H         -3.4081318747        1.4816215915        2.6911308262
 H         -7.0638169479        2.0522851877       -1.2944065151
 H         -6.2252648146        0.6714641997       -2.0133605255
 H         -5.0257541873        2.8712763333       -0.2834061716
 H         -4.6747904621        2.4891678151       -1.9796456394
 O         -3.2477993026        0.5269069187       -1.6462611352
 C         -2.2560709406       -0.4270830504       -1.4647001902
 O         -1.8078567921       -0.9093173238       -2.5210266941
 H          0.3302900369        0.6253507162        0.2640804804
 C          0.9305280450       -0.0223487394       -0.3631061847
 C          0.5014021238       -1.3238868505       -0.5959393372
 C          1.2909137047       -2.1479106454       -1.3864632510
 C          2.4585110768       -1.6663639373       -1.9544933330
 C          2.8685060181       -0.3639459309       -1.7409638147
 C          2.0965165265        0.4629940469       -0.9336889559
 N          2.5117168109        1.7836726366       -0.6937561716
 S          4.1238324796        2.0447921569       -0.3288033192
 O          4.1414104942        3.2533220344        0.4653445272
 O          4.8970831329        2.0810840003       -1.5450739770
 C          4.6126442236        0.6388090236        0.6547739644
 C          5.6019277961       -0.2100422077        0.2022659602
 C          5.9372201920       -1.3162056956        0.9667038107
 C          5.2776959493       -1.5548940172        2.1621241598
 C          4.2884313744       -0.6902193704        2.6054711819
 C          3.9503738421        0.4179299978        1.8462263284
 H          3.1881143652        1.1106725889        2.1658674757
 H          3.7757031222       -0.8765612360        3.5355544757
 H          5.5350765044       -2.4190534622        2.7539064016
 H          6.7072029769       -1.9891582452        0.6256924340
 H          6.0866712491        0.0117694798       -0.7344101495
 H          1.9047992114        2.2992052224       -0.0740116152
 H          3.7638144075        0.0305709662       -2.1931502284
 H          3.0554529750       -2.3144589067       -2.5775087381
 H          0.9877928254       -3.1655212620       -1.5683518082
 C         -0.7847023685       -1.7746324912        0.0524777915
 H         -0.6224108943       -1.8068832234        1.1403890115
 C         -1.2554490766       -3.1372078606       -0.4102462765
 C         -0.7235367627       -4.3808054123        0.2351875354
 C         -2.1330470780       -3.9452068750        0.4966931088
 H         -2.9409534824       -4.5134818849        0.0606391312
 H         -2.3690845519       -3.5242509860        1.4633375679
 H         -0.0023057838       -4.2624888388        1.0293679796
 H         -0.5649889512       -5.2535504525       -0.3800662573
 H         -1.4763155698       -3.1620589455       -1.4713814998
 O         -2.0425549587       -0.3040576980        2.1497312559
