  62
        -98.94610887
 C         -1.9320165604       -1.2936293103        0.2551252198
 C         -1.7299186903        0.0950010897        0.0739015598
 C         -2.8907881903        0.9482235397        0.3569814197
 C         -4.0419442704        0.3939964198        0.7790853696
 C         -5.3044409803        1.1335589599        1.1301024495
 C         -6.1908238002        1.4639696499       -0.0785719906
 C         -5.6632784401        2.5744489599       -0.9880013505
 H         -6.4779576900        2.8518543399       -1.6598945506
 H         -5.4244540301        3.4522399199       -0.3867798905
 C         -4.4432032101        2.1770006698       -1.8307628505
 H         -4.5896753800        2.5073160598       -2.8617060605
 H         -4.3553966001        1.0882210898       -1.8543002104
 C         -3.1189186701        2.7698234597       -1.3492731104
 H         -2.3211017200        2.3940829897       -1.9951946403
 H         -3.1475060500        3.8572882797       -1.4479818104
 C         -2.7606230702        2.4193207397        0.1007971497
 H         -1.7166340202        2.6927960997        0.2710262397
 H         -3.3882272602        2.9834525998        0.7902702096
 H         -6.3379633202        0.5530134599       -0.6634571006
 H         -7.1656076502        1.7717895200        0.3067902494
 H         -5.0558668203        2.0521383999        1.6622700695
 H         -5.8682709504        0.4834089299        1.8025169395
 O         -4.1873337404       -0.9458417602        0.9616189596
 C         -3.1474797405       -1.8205658903        0.6911577697
 O         -3.4208159206       -3.0223276202        0.8864124397
 O         -0.6389911703        0.5989958896       -0.2978158602
 C         -0.8015814704       -2.2638310704       -0.0359830702
 C          0.4146387795       -1.8999381505        0.7799382599
 C          0.2754924194       -1.7433559704        2.1574633299
 C          1.3604923394       -1.4123360905        2.9448296400
 C          2.6078817694       -1.2218132906        2.3748287101
 C          2.7595429895       -1.3826920806        1.0038124201
 C          1.6691338296       -1.7317758305        0.2165927000
 H          1.8191048396       -1.8460983006       -0.8433273600
 N          4.0197940796       -1.2258049307        0.3976357802
 S          4.2209618197       -0.1648254507       -0.8815501998
 O          3.3667498098       -0.5439767707       -1.9760995999
 O          5.6435390497       -0.1828438408       -1.1458467597
 C          3.7650996598        1.4342050293       -0.2336366299
 C          4.7761226798        2.2982590293        0.1428713002
 C          4.4442651198        3.5255931593        0.6919338301
 C          3.1103262098        3.8640495094        0.8639436100
 C          2.1096960598        2.9829180894        0.4860575900
 C          2.4321257998        1.7536509594       -0.0690829800
 H          1.6580081098        1.0634893895       -0.3655336400
 H          1.0692940798        3.2349182095        0.6171376599
 H          2.8484588099        4.8185833794        1.2928610800
 H          5.2229270199        4.2116311893        0.9842568002
 H          5.7984865698        1.9937250792       -0.0134314697
 H          4.7748116295       -1.0965544107        1.0567429802
 H          3.4564094594       -0.9566570006        2.9872840301
 H          1.2349413493       -1.2946064305        4.0106096700
 H         -0.7015211206       -1.8841094804        2.6005460199
 H         -1.1534987005       -3.2516598304        0.2962175798
 C         -0.5356336903       -2.3201296404       -1.5259665401
 C          0.0295030496       -3.5624365805       -2.1436906701
 C         -1.4009082303       -3.1876741704       -2.3873721102
 H         -1.6816764102       -2.8275239504       -3.3658751802
 H         -2.1725043004       -3.7620174503       -1.8949304502
 H          0.7357071497       -3.4572453905       -2.9538035800
 H          0.2298955595       -4.3986321305       -1.4907712701
 H         -0.2248555503       -1.3650088705       -1.9353827601
