  62
        -98.94877873
 C         -1.8162724204       -1.3311356053       -0.2474403421
 C         -2.8868354691       -0.6422288832        0.3669797090
 C         -3.2584999884        0.6373460942       -0.2442191873
 C         -2.5932752524        1.0774850221       -1.3281802408
 C         -2.8433755853        2.3711258709       -2.0537265052
 C         -2.1185655266        3.5664413270       -1.4192850833
 C         -2.7346567106        4.0772748923       -0.1161622539
 H         -3.8054020769        4.2349692976       -0.2542260474
 H         -2.2832285862        5.0495008587        0.0917851936
 C         -2.4953313593        3.1594379209        1.0909344800
 H         -2.1828704344        3.7618558388        1.9481807192
 H         -1.6675985037        2.4809881545        0.8668443005
 C         -3.7176420798        2.3500387092        1.5270482212
 H         -4.4949637525        3.0291396480        1.8855677941
 H         -3.4222024402        1.7075561118        2.3610494449
 C         -4.3158762927        1.4580653768        0.4311709914
 H         -4.8496130584        2.0665496709       -0.2983087236
 H         -5.0236119788        0.7694881764        0.9000409165
 H         -2.1251641251        4.3815174566       -2.1470053687
 H         -1.0779651905        3.2846478632       -1.2365235233
 H         -3.9141447822        2.5716574256       -2.1017552441
 H         -2.4656105498        2.2379516462       -3.0696787841
 O         -1.5927710664        0.3695734863       -1.9103788370
 C         -1.1364875923       -0.8106927365       -1.3497138607
 O         -0.1496582394       -1.3063981617       -1.9275693865
 O         -3.4922203414       -1.0703600984        1.3889084686
 C         -1.2870831494       -2.6040035471        0.3932683239
 C          0.1506913691       -2.3613474559        0.7801079193
 C          1.1998631608       -3.2150867832        0.4670221783
 C          2.5079176926       -2.8551741357        0.7466979560
 C          2.7985511298       -1.6286042519        1.3163953218
 C          1.7525252723       -0.7829632806        1.6589541793
 C          0.4450886982       -1.1654460569        1.4246038781
 H         -0.3605212519       -0.4894286947        1.6852410653
 N          2.0511952598        0.5266849591        2.1429830581
 S          1.9258363471        1.6344966714        0.8679357111
 O          2.2670986342        2.9229902178        1.4343706842
 O          0.6288137234        1.5688397811        0.2295695652
 C          3.2098560437        1.0771993360       -0.2239254434
 C          4.5016079612        1.5018840058        0.0208981663
 C          5.5253402522        1.0295996019       -0.7837086364
 C          5.2401843197        0.1397319079       -1.8089723829
 C          3.9381607352       -0.2769383850       -2.0390731223
 C          2.9065940050        0.1927732737       -1.2399749996
 H          1.8844752369       -0.1203668871       -1.3947082277
 H          3.7113866676       -0.9710939765       -2.8322975281
 H          6.0369705200       -0.2324920574       -2.4335140245
 H          6.5389251350        1.3520852821       -0.6079507255
 H          4.6697284010        2.1946859424        0.8289705383
 H          1.4145555925        0.8247200284        2.8714724918
 H          3.8144594068       -1.3148452635        1.4925200759
 H          3.3123993670       -3.5258308210        0.4877844549
 H          0.9940847970       -4.1547810750       -0.0190571580
 H         -1.8846148534       -2.7476260706        1.3057746418
 C         -1.4803963651       -3.7973322829       -0.5166029436
 C         -1.6172763325       -5.1730846503        0.0626859115
 C         -2.8094646536       -4.4888290222       -0.5334738479
 H         -3.1928035325       -4.8445243004       -1.4779047264
 H         -3.5723708764       -4.1117894350        0.1319816362
 H         -1.1845013043       -6.0038118285       -0.4736825654
 H         -1.5744675974       -5.2696062422        1.1369746020
 H         -0.9619813342       -3.6855838194       -1.4621646711
