  62
        -98.94530329
 C         -2.1424655701       -0.8934334360        0.0711889506
 C         -2.8421534929       -0.2075441531        1.0918524324
 C         -3.5724283210        0.9967025432        0.6746791247
 C         -3.4996799064        1.3975738450       -0.6079570211
 C         -4.2316675310        2.5764741703       -1.1796000427
 C         -5.6026676629        2.1640566058       -1.7339272317
 C         -6.4326379402        1.3211326725       -0.7656266593
 H         -7.3893638752        1.1168621708       -1.2509464244
 H         -5.9363751158        0.3596713435       -0.6153202869
 C         -6.6814250420        1.9810882878        0.5977941302
 H         -6.4969270353        3.0537959967        0.5294557190
 H         -7.7321080337        1.8490977915        0.8642552019
 C         -5.8547468759        1.3969969665        1.7447374138
 H         -5.9639150500        0.3096872469        1.7579978756
 H         -6.2606767152        1.7785147920        2.6853322232
 C         -4.3576185773        1.7304865410        1.7255805121
 H         -4.2217083211        2.8094415873        1.6251154334
 H         -3.9356010357        1.4193332350        2.6858919124
 H         -6.1537606466        3.0687072012       -1.9971145711
 H         -5.4459663949        1.5837648992       -2.6461190901
 H         -4.3530252455        3.3326405805       -0.4061958098
 H         -3.6308653894        2.9928429490       -1.9901445300
 O         -2.7770245239        0.7401217370       -1.5507139388
 C         -2.0860929787       -0.4231364637       -1.2411651075
 O         -1.4750837530       -0.9283175124       -2.2010603032
 H          0.0967834691       -0.1233277209        1.2600247674
 C          0.6960674830       -0.8172188987        0.6823417996
 C          0.0928548575       -1.9554727617        0.1602698161
 C          0.8716721351       -2.8358827983       -0.5780065236
 C          2.2124679599       -2.5691977617       -0.7974952479
 C          2.8059674831       -1.4322527939       -0.2816576600
 C          2.0374374040       -0.5474599583        0.4639875554
 N          2.6341723565        0.6058231445        1.0066437201
 S          3.4931754333        1.6054862943       -0.0363211023
 O          3.4542954696        2.9138967142        0.5812466066
 O          2.9962957494        1.5183833482       -1.3900403825
 C          5.1560064430        0.9741705533        0.0509824120
 C          5.8089629003        0.5915439224       -1.1042552366
 C          7.1053262818        0.1086822691       -1.0124123003
 C          7.7221644603        0.0188118405        0.2260192057
 C          7.0532688348        0.4098412382        1.3765254987
 C          5.7578416305        0.8943401720        1.2916941803
 H          5.2043937608        1.2120702407        2.1594615656
 H          7.5362018743        0.3383995438        2.3377299741
 H          8.7302341197       -0.3584426639        0.2948642174
 H          7.6266394601       -0.1952134823       -1.9059146545
 H          5.2861978938        0.6740672418       -2.0440158193
 H          2.0025277376        1.1543613511        1.5728500832
 H          3.8479145928       -1.2191586986       -0.4559097493
 H          2.8038617286       -3.2579062431       -1.3812491148
 H          0.4273880795       -3.7252635438       -0.9931382057
 C         -1.3791299687       -2.1577304245        0.4244561692
 H         -1.5158229056       -2.2872914299        1.5085649445
 C         -1.9701317263       -3.3553650709       -0.2880717968
 C         -1.8433346702       -4.7245067550        0.3081798702
 C         -3.1706408890       -4.0294625022        0.3032642776
 H         -3.9409475261       -4.3878703473       -0.3630039552
 H         -3.5489785308       -3.6390066044        1.2368622938
 H         -1.3216689982       -4.8126957874        1.2489856914
 H         -1.7041913775       -5.5647946631       -0.3549474738
 H         -1.9321551354       -3.2578767927       -1.3672222349
 O         -2.8492920115       -0.5809379488        2.2966580564
