  62
        -98.93137436
 C          2.2487998640        0.9723592825       -0.3600320638
 C          3.6291720486        1.2064935259       -0.1325975280
 C          4.5431916523        0.1250063585       -0.5112544573
 C          4.0491594760       -1.0015472589       -1.0555103790
 C          4.8521738607       -2.1873545945       -1.5177639358
 C          5.2065923423       -3.1758454378       -0.3983381551
 C          6.2750244185       -2.6918673657        0.5828998760
 H          6.5800358351       -3.5565394768        1.1755872578
 H          7.1496815031       -2.3529582075        0.0269879354
 C          5.8052903026       -1.5825449547        1.5343557720
 H          6.1231006111       -1.8175376361        2.5526528681
 H          4.7132450911       -1.5463439033        1.5406242642
 C          6.3444731505       -0.1914247548        1.2011363278
 H          5.9207675836        0.5199820528        1.9144027039
 H          7.4301821221       -0.1811632032        1.3192189207
 C          6.0023946421        0.2959789258       -0.2128989918
 H          6.2308996848        1.3627464428       -0.2730770267
 H          6.6052612421       -0.2338137115       -0.9499852820
 H          4.2938878449       -3.4245394189        0.1483929869
 H          5.5680894550       -4.0903032333       -0.8743555852
 H          5.7654001158       -1.8437855042       -2.0045180962
 H          4.2384572166       -2.7083242456       -2.2558208599
 O          2.7203480186       -1.1854549482       -1.2715091617
 C          1.7830849123       -0.2179026707       -0.9202577767
 O          0.6093573936       -0.5517964649       -1.1623338621
 O          4.0761559829        2.2754360398        0.3637183163
 C          1.2832375591        2.0825152531        0.0377016476
 C          0.2271346294        1.5372321606        0.9647401632
 C          0.5798451914        1.4231562884        2.3102440414
 C         -0.2923524229        0.8888629065        3.2374296367
 C         -1.5467383120        0.4566595050        2.8463012573
 C         -1.9158130724        0.5672989860        1.5115122300
 C         -1.0327847460        1.1020833481        0.5815697071
 H         -1.3441563516        1.1239609195       -0.4450072312
 N         -3.2123262838        0.1876502535        1.1118216175
 S         -3.4959073686       -0.6525352104       -0.3249746669
 O         -2.9001439993       -1.9697231594       -0.2640454190
 O         -3.1533239174        0.1774907327       -1.4492629226
 C         -5.2722810131       -0.7904517046       -0.2162936812
 C         -5.8512679208       -1.9894200227        0.1521174504
 C         -7.2319935043       -2.0656557723        0.2517525153
 C         -8.0059186344       -0.9464956363       -0.0143596995
 C         -7.4105747791        0.2506945883       -0.3837882158
 C         -6.0312622805        0.3323690828       -0.4867213824
 H         -5.5247604756        1.2373789727       -0.7787479554
 H         -8.0154146594        1.1183854707       -0.5923250767
 H         -9.0798668956       -1.0080885709        0.0640228236
 H         -7.6974036376       -2.9958445392        0.5355635354
 H         -5.2097636946       -2.8349538696        0.3424076637
 H         -3.7058360245       -0.2857016957        1.8584077028
 H         -2.2331833243        0.0371729882        3.5665579987
 H          0.0059532626        0.8051032474        4.2716509925
 H          1.5631440887        1.7506689375        2.6197369273
 H          1.9056476801        2.7593374524        0.6459461188
 C          0.8890975788        2.9104502257       -1.1784396477
 C         -0.0333173811        2.4869514486       -2.2802449520
 C         -0.4306246781        3.5978114135       -1.3536927381
 H         -0.4310108811        4.6064412719       -1.7397742360
 H         -1.2055179926        3.4030763358       -0.6293782208
 H          0.2520420036        2.7442262907       -3.2912275383
 H         -0.5271042536        1.5303278394       -2.2157259840
 H          1.7574824994        3.4737304759       -1.5143535215
