  62
        -98.93937065
 C         -1.4551115290       -0.9050518133       -0.5457142107
 C         -2.5770198621       -1.1126204502        0.2957497313
 C         -3.3363627174        0.0777028180        0.7108831410
 C         -2.9188214729        1.2879166183        0.3017722336
 C         -3.5584624490        2.6216297245        0.5735595324
 C         -4.5193807258        3.0086389274       -0.5634600011
 C         -5.9451634252        2.4808695891       -0.4084820895
 H         -6.4794442195        2.7127922920       -1.3326224141
 H         -6.4409080666        3.0205369146        0.4011113630
 C         -6.0607560190        0.9785944528       -0.1374339258
 H         -5.3646827650        0.4346905528       -0.7784207183
 H         -7.0689776032        0.6649341653       -0.4146517351
 C         -5.8126211032        0.6090813794        1.3326792587
 H         -6.6376269412       -0.0078051674        1.6950204844
 H         -5.8185342100        1.5173851151        1.9349757047
 C         -4.5217866794       -0.1784546317        1.6012031734
 H         -4.7195146050       -1.2500221637        1.4959333677
 H         -4.2157765304       -0.0204131156        2.6412161183
 H         -4.0911834710        2.6448807491       -1.5009513502
 H         -4.5664490755        4.0977013334       -0.6264288244
 H         -2.7462692043        3.3511298125        0.6105031500
 H         -4.0652909222        2.6166372040        1.5341053132
 O         -1.8345434459        1.4483047104       -0.5004567346
 C         -1.0710333033        0.3778402823       -0.9343008760
 O         -0.1145510920        0.7182258927       -1.6577271125
 O         -2.9399946594       -2.2595362278        0.6766051493
 C         -0.6695550493       -2.1466939308       -0.9350336784
 C          0.4165799906       -2.4001413820        0.0847965913
 C          0.4600275209       -3.5931787682        0.7951566927
 C          1.4286122590       -3.7987698300        1.7616158902
 C          2.3516639675       -2.8113226210        2.0498120111
 C          2.3181999134       -1.6123424362        1.3430157130
 C          1.3716741507       -1.4269647788        0.3469265187
 H          1.3466022941       -0.4975509649       -0.1963835514
 N          3.2479451409       -0.6048223455        1.6261795903
 S          2.9059045398        1.0330708897        1.5026052978
 O          3.6750474309        1.6330796244        2.5756184982
 O          1.4864838531        1.2913038150        1.5197995901
 C          3.6644193863        1.4897121786       -0.0423090460
 C          5.0433773553        1.5934838876       -0.0528977167
 C          5.6851098609        1.9280162805       -1.2329636786
 C          4.9405804362        2.1522455920       -2.3818400324
 C          3.5594713606        2.0460660663       -2.3541411090
 C          2.9091763366        1.7123074455       -1.1745825233
 H          1.8344367618        1.6186924387       -1.1374527892
 H          2.9738065602        2.2176728366       -3.2433462209
 H          5.4380306527        2.4124324560       -3.3029541571
 H          6.7595897566        2.0132451926       -1.2550400501
 H          5.5803236157        1.4251464995        0.8657930009
 H          3.8455282999       -0.7943008619        2.4171275144
 H          3.0917565912       -2.9593603859        2.8216535240
 H          1.4533630093       -4.7287474546        2.3091486829
 H         -0.2848489913       -4.3510755228        0.6028021483
 H         -1.3871755247       -2.9761356619       -0.8655509145
 C         -0.1005973023       -2.1234002161       -2.3386350373
 C          0.1941518488       -3.4240928811       -3.0218544538
 C         -0.9529290635       -2.5774774990       -3.4838756645
 H         -0.8682741940       -2.0560048242       -4.4252183402
 H         -1.9559436879       -2.9102629720       -3.2589974384
 H          1.0707169946       -3.4881460137       -3.6476752765
 H         -0.0323537549       -4.3338343545       -2.4868187809
 H          0.5722317043       -1.2958882737       -2.5187896070
