  62
        -98.93702047
 C         -0.4170991013       -1.8060951999        0.0856788389
 C         -1.5659745711       -1.7257295552        0.9071017325
 C         -2.6233915652       -0.7863146293        0.4921589230
 C         -2.4273619047       -0.0342051827       -0.6052087419
 C         -3.3618568021        0.9714609373       -1.2257317690
 C         -3.9611840796        2.0054321164       -0.2592439455
 C         -5.4668667195        1.8327936017       -0.0551802713
 H         -5.8857034758        2.7827458676        0.2842417558
 H         -5.9237843539        1.5999769718       -1.0191552674
 C         -5.8626630735        0.7651801229        0.9636319283
 H         -6.9479391768        0.6487571488        0.9138483178
 H         -5.6206087421        1.1197746056        1.9681715185
 C         -5.2152082829       -0.6089059573        0.7720719152
 H         -5.8577572321       -1.3460601577        1.2585801913
 H         -5.1738413912       -0.8726683647       -0.2835931944
 C         -3.8202350970       -0.7305220375        1.4028137654
 H         -3.6636538390        0.0815904133        2.1209742616
 H         -3.7634573631       -1.6547660412        1.9871698921
 H         -3.7867522353        3.0001889140       -0.6727736078
 H         -3.4420415378        1.9602193619        0.6983364378
 H         -2.7735999096        1.4712949572       -1.9966571256
 H         -4.1637585750        0.4361709453       -1.7384595308
 O         -1.2882206255       -0.1149649630       -1.3472026694
 C         -0.2483959194       -0.9690094616       -1.0176669144
 O          0.7364304859       -0.8803331142       -1.7724187869
 H          1.1413624378       -0.2969164507        1.4622194446
 C          2.0469341725       -0.7290342565        1.0618627528
 C          2.0179928353       -2.0069684360        0.5167876426
 C          3.2002987937       -2.5407770350        0.0208387334
 C          4.3734594008       -1.8068422677        0.0655742603
 C          4.3903043020       -0.5244461875        0.5809841490
 C          3.2095541140        0.0206869743        1.0747380348
 N          3.1763939026        1.3277950951        1.5898510654
 S          1.8615154749        2.3156273150        1.3292229749
 O          2.3491920019        3.6399104025        1.6615011423
 O          0.7268921262        1.8679474170        2.1009683383
 C          1.4614071925        2.2930184390       -0.4105813456
 C          2.4051218283        1.9678552139       -1.3623835766
 C          2.0605673430        2.0502276705       -2.7018295373
 C          0.7955989569        2.4776633307       -3.0678219311
 C         -0.1367178084        2.8145743108       -2.1003340480
 C          0.1941611336        2.7137150619       -0.7598523028
 H         -0.5098566259        2.9433856372        0.0250470431
 H         -1.1205220496        3.1529615155       -2.3849347254
 H          0.5316332407        2.5419408165       -4.1117465907
 H          2.7817349571        1.7751697024       -3.4543342961
 H          3.3865141108        1.6354281717       -1.0672395990
 H          4.0415470463        1.8428918745        1.5151943964
 H          5.3021752101        0.0531915828        0.5999881111
 H          5.2853837629       -2.2350981414       -0.3215728639
 H          3.2049505645       -3.5259928779       -0.4148908931
 C          0.6985560643       -2.7391915330        0.5178004950
 H          0.4556850723       -2.9821091589        1.5668716932
 C          0.7386406663       -4.0621138106       -0.2348763446
 C         -0.4441205408       -4.5518272033       -1.0144707621
 C          0.7973714012       -4.1184296952       -1.7312872445
 H          1.4119384493       -4.8773458045       -2.1929448892
 H          0.7828619705       -3.1791956796       -2.2610293034
 H         -0.6801919575       -5.6049360516       -0.9767606949
 H         -1.3129348270       -3.9113023778       -1.0638146005
 H          1.2969865414       -4.8217942707        0.3034285279
 O         -1.7061611013       -2.4167003213        1.9539703966
