  62
        -98.94878578
 C         -1.8089806590       -1.3424312986       -0.2478024775
 C         -2.8877450911       -0.6653705761        0.3654189974
 C         -3.2704841712        0.6116414496       -0.2441789626
 C         -2.6089440096        1.0590013526       -1.3274617731
 C         -2.8696324129        2.3521915269       -2.0500647806
 C         -2.1535605902        3.5515953280       -1.4133176745
 C         -2.7717164505        4.0541256827       -0.1079039505
 H         -2.3273152061        5.0291422243        0.1021026631
 H         -3.8438135747        4.2041256120       -0.2440226375
 C         -2.5237609279        3.1347496659        1.0962861578
 H         -1.6914963948        2.4629808300        0.8686761166
 H         -2.2142088840        3.7370129135        1.9546931058
 C         -3.7396183983        2.3154171320        1.5319873572
 H         -4.5209604677        2.9879211707        1.8941253451
 H         -3.4383344543        1.6721532117        2.3633039364
 C         -4.3332740770        1.4229616784        0.4340172784
 H         -5.0358280833        0.7281774986        0.9014969067
 H         -4.8717515193        2.0300179449       -0.2931185610
 H         -1.1104351114        3.2776576362       -1.2329508137
 H         -2.1677849687        4.3685789707       -2.1387878278
 H         -2.4915322518        2.2243312244       -3.0665628305
 H         -3.9419458688        2.5445686491       -2.0968620728
 O         -1.6027643106        0.3602389603       -1.9109566229
 C         -1.1339661864       -0.8149512723       -1.3496729410
 O         -0.1415119303       -1.3003342440       -1.9266188879
 H         -0.3636876501       -0.4710431702        1.6700970779
 C          0.4483912500       -1.1440937718        1.4221680865
 C          0.1672699799       -2.3487211749        0.7880459795
 C          1.2249070584       -3.1980967099        0.4918265511
 C          2.5281871654       -2.8264047759        0.7783087920
 C          2.8058036718       -1.5920912793        1.3376290676
 C          1.7512980445       -0.7500522850        1.6625855750
 N          2.0374072367        0.5667000772        2.1346917649
 S          1.9176904486        1.6589728468        0.8455836690
 O          2.2546179763        2.9547423630        1.3978523417
 O          0.6235066189        1.5840646071        0.2024626332
 C          3.2083639634        1.0896419052       -0.2322342460
 C          2.9124132859        0.1914974310       -1.2383745534
 C          3.9497943176       -0.2890170753       -2.0234246143
 C          5.2501492646        0.1307652486       -1.7895616550
 C          5.5277923506        1.0350328053       -0.7749007534
 C          4.4982584088        1.5180993510        0.0157943060
 H          4.6605621320        2.2217574895        0.8156321086
 H          6.5400481076        1.3601554317       -0.5963488303
 H          6.0515446844       -0.2504103606       -2.4027129202
 H          3.7288607387       -0.9942618402       -2.8084739056
 H          1.8914586910       -0.1239539404       -1.3961846442
 H          1.3913678801        0.8689991260        2.8530694182
 H          3.8180322429       -1.2695887082        1.5190297892
 H          3.3392878891       -3.4942000657        0.5330840612
 H          1.0294197515       -4.1442746322        0.0141338080
 C         -1.2659925727       -2.6082106835        0.3950837721
 H         -1.8653180951       -2.7592059314        1.3052743112
 C         -1.4408323218       -3.8041206997       -0.5151982123
 C         -1.5715223500       -5.1805538444        0.0638809362
 C         -2.7639896796       -4.5065492965       -0.5432786537
 H         -3.1361076072       -4.8659472804       -1.4907890943
 H         -3.5357502078       -4.1352862474        0.1151942827
 H         -1.1272733209       -6.0080486100       -0.4681018726
 H         -1.5375883082       -5.2761024587        1.1385765538
 H         -0.9151503571       -3.6886978391       -1.4562925380
 O         -3.4904874487       -1.1009006112        1.3857675693
