  62
        -98.93056027
 C         -2.3648715899       -0.8264856797        0.7894536701
 C         -3.4270616098       -0.9587107202       -0.1373381699
 C         -4.5694639399       -0.0475835302        0.0548341596
 C         -4.5392185000        0.8530569003        1.0527424092
 C         -5.5859628401        1.8963112003        1.3225024087
 C         -5.4437465701        3.0604113499        0.3211997282
 C         -6.6260559001        3.2165402094       -0.6353342519
 H         -6.3234769401        3.9161485891       -1.4174220522
 H         -7.4620148301        3.6668173596       -0.0958975622
 C         -7.1304662499        1.9261173491       -1.2884701114
 H         -7.7710531699        2.2210437687       -2.1223519816
 H         -7.7649095599        1.3828919193       -0.5864955012
 C         -6.0491910698        0.9719782989       -1.8120004309
 H         -5.1283671398        1.5140883189       -2.0284786411
 H         -6.3979120097        0.5496059685       -2.7566558408
 C         -5.7357128698       -0.2136382307       -0.8803140204
 H         -5.4786865597       -1.0807424109       -1.4957329700
 H         -6.6290557098       -0.4723304205       -0.3051502603
 H         -4.5270623301        2.9087086097       -0.2526886616
 H         -5.3202283502        3.9969453801        0.8671322078
 H         -5.4340926502        2.2516662008        2.3418728886
 H         -6.5755365301        1.4500849502        1.2526031088
 O         -3.4889340601        0.9687965307        1.9065828693
 C         -2.3885895500        0.1389318707        1.8002564497
 O         -1.5056899901        0.3494306012        2.6568933497
 O         -3.4485386597       -1.7918860906       -1.0811927395
 C         -1.1196261698       -1.6998233896        0.7582970306
 C         -0.1427297898       -1.1937211000       -0.2766589796
 C         -0.3806207297       -1.3337748806       -1.6394721195
 C          0.5379461304       -0.8634617109       -2.5604931197
 C          1.7061485003       -0.2467230107       -2.1480139499
 C          1.9507554002       -0.0969230101       -0.7896089399
 C          1.0287894002       -0.5733254897        0.1336936902
 H          1.2142634001       -0.4455405293        1.1924618202
 N          3.1298707601        0.5473190402       -0.3568954901
 S          4.5822937002       -0.0737084999       -0.9643468797
 O          4.7236789003        0.3471863295       -2.3346071299
 O          4.6457075003       -1.5001737598       -0.7304309191
 C          5.7714933001        0.7738619606        0.0562510300
 C          6.2376903100        0.1583326111        1.2023586403
 C          7.1471901399        0.8318800415        2.0023717701
 C          7.5705568399        2.1033740614        1.6457140295
 C          7.0935252799        2.7079552709        0.4921870393
 C          6.1844507700        2.0397697705       -0.3124523305
 H          5.7940493200        2.4657438900       -1.2217990907
 H          7.4274525998        3.6954651808        0.2174126188
 H          8.2794151898        2.6246649017        2.2694868294
 H          7.5220251299        0.3632343619        2.8980945603
 H          5.8908821401       -0.8358469388        1.4354244107
 H          3.1772687800        0.5826158907        0.6534799999
 H          2.4330956703        0.1109194391       -2.8588874400
 H          0.3424877304       -0.9780799514       -3.6163162896
 H         -1.2980143396       -1.7963847208       -1.9685915794
 H         -0.6514247599       -1.5741379692        1.7440114206
 C         -1.4233958797       -3.1721039197        0.5632825512
 C         -0.3869404396       -4.1800895595        0.9552178317
 C         -1.6406410397       -4.0396271092        1.7645606115
 H         -2.3832770296       -4.8210833993        1.7070750518
 H         -1.5709360198       -3.5747790188        2.7375186613
 H         -0.2654806895       -5.0589808797        0.3409218121
 H          0.5358712903       -3.8108723792        1.3775858316
 H         -2.0227743296       -3.3798404401       -0.3123532688
