  62
        -98.94463074
 C         -1.6835042672       -1.4214239359        0.1549506647
 C         -1.6290751205       -0.3364479050       -0.7541237425
 C         -2.9285811835        0.2110252044       -1.1743166644
 C         -4.0628783012       -0.3361048395       -0.7017139781
 C         -5.4467917237        0.1617399249       -0.9998996245
 C         -5.9028234450        1.1872389738        0.0474398245
 C         -4.8793202027        2.2900918686        0.3191229437
 H         -5.3209880877        2.9711649124        1.0498927681
 H         -3.9936330115        1.8513155475        0.7851351002
 C         -4.4544267941        3.0824033381       -0.9251749801
 H         -4.4510034010        4.1462902382       -0.6786686269
 H         -5.1831832715        2.9371727404       -1.7235718868
 C         -3.0570845699        2.7435379621       -1.4483887634
 H         -2.3320802001        2.8017229545       -0.6315525492
 H         -2.7765574661        3.5026008883       -2.1839393921
 C         -2.9114277776        1.3746599521       -2.1250317892
 H         -3.6802523462        1.2594544619       -2.8918623143
 H         -1.9320214142        1.3511482814       -2.6118163660
 H         -6.0960104409        0.6618635351        0.9855606799
 H         -6.8393223220        1.6339947441       -0.2911141208
 H         -6.1297789228       -0.6891949483       -0.9833516377
 H         -5.4615930551        0.6084830291       -1.9919715339
 O         -4.0748708997       -1.3889056887        0.1548442594
 C         -2.8933478156       -1.9401499940        0.6203209195
 O         -3.0486104927       -2.8772053099        1.4294246035
 O         -0.5602820853        0.1512480022       -1.2044605578
 C         -0.4097062062       -2.0405305852        0.7093284161
 C          0.2469807427       -1.0297205053        1.6190194326
 C         -0.3932853679       -0.6825166222        2.8068441318
 C          0.1594259165        0.2550209503        3.6570060102
 C          1.3514017850        0.8808687054        3.3309926580
 C          1.9935209974        0.5483854214        2.1459511539
 C          1.4479984431       -0.4151713187        1.3074102518
 H          1.9649260827       -0.6734292197        0.4010687394
 N          3.2119648266        1.1505884661        1.7812542943
 S          3.2942365468        1.8987237905        0.2736004248
 O          4.4459193187        2.7723337406        0.3780767264
 O          2.0459975206        2.5433774400       -0.0590628713
 C          3.6776200145        0.5868310394       -0.8648730463
 C          4.9059608785       -0.0321736548       -0.7381578765
 C          5.2304894588       -1.0591169833       -1.6094534967
 C          4.3268054746       -1.4435676000       -2.5890484562
 C          3.0998387238       -0.8080963166       -2.7041137236
 C          2.7659352022        0.2196339388       -1.8349303590
 H          1.8064215587        0.7125527680       -1.8717401350
 H          2.3934292733       -1.1105876023       -3.4612729048
 H          4.5775302223       -2.2449488733       -3.2664311363
 H          6.1824511179       -1.5575806441       -1.5223187286
 H          5.5791324951        0.3036658796        0.0329197491
 H          3.5864268240        1.7703893192        2.4867891576
 H          1.7788826115        1.6230094816        3.9888946122
 H         -0.3442330177        0.5096102923        4.5776951309
 H         -1.3322419896       -1.1611148698        3.0511474493
 H         -0.7333927684       -2.8890227895        1.3283611064
 C          0.4914482347       -2.5514545804       -0.3941165087
 C          1.5962096697       -3.5091271688       -0.0661487908
 C          0.3924177201       -3.9830894404       -0.8224322415
 H          0.4986854769       -4.2146396483       -1.8713975215
 H         -0.3215789626       -4.6101225180       -0.3082410446
 H          2.5323124364       -3.4129000983       -0.5951313028
 H          1.7002389196       -3.8157099072        0.9636063653
 H          0.6738986191       -1.8150567769       -1.1663710591
