  62
        -98.94393739
 C         -1.8252720455       -1.1411638583        0.2431788177
 C         -2.1445317662       -0.1283775724       -0.6927645366
 C         -3.5704272610        0.0042485611       -1.0278936932
 C         -4.4623377907       -0.8303935953       -0.4635632437
 C         -5.9471869166       -0.7686239568       -0.6731009144
 C         -6.6194582915        0.1230748914        0.3803428639
 C         -5.9495182652        1.4861206834        0.5544268514
 H         -6.5252129467        2.0388152004        1.3000135875
 H         -4.9471464851        1.3421957381        0.9643009687
 C         -5.8527495143        2.3151930189       -0.7338432361
 H         -6.5533572279        1.9305325798       -1.4758635194
 H         -6.1472943384        3.3431190644       -0.5120770094
 C         -4.4515808893        2.3762972901       -1.3452931819
 H         -3.7283756874        2.6720087003       -0.5806029253
 H         -4.4490792783        3.1539114205       -2.1139651368
 C         -3.9530398098        1.0826940226       -2.0018762007
 H         -4.6992544600        0.7177230542       -2.7106879060
 H         -3.0403877122        1.3226803057       -2.5557564984
 H         -7.6644453963        0.2630177591        0.0980851641
 H         -6.5931576205       -0.3962141078        1.3410713224
 H         -6.1523044482       -0.3876965278       -1.6715723928
 H         -6.3486481510       -1.7799065105       -0.5897342452
 O         -4.1129803481       -1.8062977407        0.4130264880
 C         -2.7932667198       -1.9780714971        0.7979907027
 O         -2.6129939304       -2.8916941334        1.6281404048
 H          2.0304073269       -0.1333795749        0.0957340956
 C          1.4429195631        0.4072387312        0.8184483588
 C          0.1976739242       -0.0649430844        1.2033894511
 C         -0.5304342673        0.6619127354        2.1422560604
 C         -0.0371796340        1.8437941768        2.6582338650
 C          1.1952847458        2.3248256125        2.2525337547
 C          1.9386116100        1.5999230097        1.3292077026
 N          3.2129593632        2.0383996104        0.9493691664
 S          3.8574268609        1.7277098117       -0.5595760625
 O          4.9680637368        2.6523369893       -0.6602560489
 O          2.8739009006        1.8089225627       -1.6126670959
 C          4.5052999501        0.0732334766       -0.4404402740
 C          5.1104880852       -0.3314913069        0.7329146725
 C          5.6536314871       -1.6045048706        0.8006784404
 C          5.5926352909       -2.4437991564       -0.3013068750
 C          4.9865306281       -2.0205651936       -1.4741179007
 C          4.4362824744       -0.7500615864       -1.5466318194
 H          3.9434522378       -0.3849247302       -2.4340582645
 H          4.9397079855       -2.6736035916       -2.3314126715
 H          6.0169828335       -3.4338274748       -0.2466780483
 H          6.1237484078       -1.9380899047        1.7116594663
 H          5.1415240648        0.3461882817        1.5694133725
 H          3.4781677240        2.9485821982        1.2950261235
 H          1.5786372341        3.2534158537        2.6472035847
 H         -0.6181741243        2.4004046612        3.3783870008
 H         -1.4968579348        0.2889188475        2.4544884243
 C         -0.3834380061       -1.3510141873        0.6691805915
 H         -0.4153913544       -2.0789148508        1.4935870827
 C          0.4167986844       -1.9473638686       -0.4701889873
 C          1.5708980702       -2.8582373796       -0.1804411133
 C          0.2984085591       -3.4159539122       -0.7417885013
 H          0.2875879006       -3.7508037187       -1.7681111754
 H         -0.3457101965       -3.9874303838       -0.0892131331
 H          1.7980736233       -3.0600168091        0.8552976406
 H          2.4387831739       -2.8114246901       -0.8205618668
 H          0.4864612973       -1.2822754245       -1.3243594037
 O         -1.2872363896        0.6282830302       -1.2197317933
