  62
        -98.93633097
 C          1.9357350622        1.1922741724       -0.1777126570
 C          3.0445896792        1.1483339908        0.7037767091
 C          4.2624796708        0.4574003986        0.2391597790
 C          4.2615175892       -0.0914916880       -0.9894372651
 C          5.3591734092       -0.8619904981       -1.6746837001
 C          5.5107889506       -2.2924900593       -1.1352060548
 C          5.4852123983       -2.4098015386        0.3862246741
 H          4.5408527995       -2.0106288029        0.7609150767
 H          5.5087279657       -3.4736335684        0.6371687142
 C          6.6469207717       -1.7328041086        1.1098852239
 H          7.5885417091       -2.1452332659        0.7408097080
 H          6.5633816452       -1.9926635441        2.1682674234
 C          6.7053822032       -0.2070302647        1.0015310754
 H          7.4003785618        0.1467180439        1.7685724476
 H          7.1168638297        0.1060436310        0.0455899084
 C          5.3771793442        0.4980527206        1.2563355918
 H          4.9476429797        0.1294666515        2.1949459430
 H          5.5740152594        1.5626792935        1.4307729373
 H          4.6874080912       -2.8930048958       -1.5299904477
 H          6.4443216341       -2.7076649802       -1.5190384095
 H          6.2979555204       -0.3210261256       -1.6007498899
 H          5.0893043892       -0.9164278418       -2.7318319363
 O          3.1698947405       -0.0340997856       -1.8026599849
 C          1.9907597806        0.5938020851       -1.4361757238
 O          1.1043259436        0.5361228885       -2.3099988931
 O          3.0258208919        1.6778738605        1.8478582393
 C          0.7076918537        1.9411013557        0.3101214560
 C         -0.3267227781        1.0125598467        0.8922141061
 C         -0.8756823510        1.2534957477        2.1463236326
 C         -1.8378717459        0.4070678612        2.6701671324
 C         -2.2776048861       -0.6900239325        1.9519661817
 C         -1.7388598772       -0.9363531629        0.6951490558
 C         -0.7705281527       -0.0898531034        0.1742827544
 H         -0.3565238762       -0.2863542604       -0.8037268700
 N         -2.1933584314       -2.0367983359       -0.0529285310
 S         -3.8511109890       -2.2477016535       -0.1687383937
 O         -4.3313363530       -2.9216476363        1.0123448994
 O         -4.0646392298       -2.9396111423       -1.4199729076
 C         -4.5254949155       -0.5972515818       -0.2357858371
 C         -4.1819959470        0.2017395285       -1.3084577591
 C         -4.6574841829        1.5023177340       -1.3549070390
 C         -5.4619639482        1.9797245402       -0.3315388034
 C         -5.8036879956        1.1629216692        0.7349018643
 C         -5.3308086603       -0.1385639250        0.7867881448
 H         -5.5704589970       -0.8069821894        1.5974776820
 H         -6.4319070335        1.5360182202        1.5275216312
 H         -5.8231617072        2.9951900256       -0.3681091384
 H         -4.3904947359        2.1391666508       -2.1828268259
 H         -3.5554987843       -0.2000415710       -2.0896756266
 H         -1.7512304235       -2.1180012563       -0.9570229973
 H         -3.0208454425       -1.3642539319        2.3454655192
 H         -2.2500170934        0.6027226283        3.6480318956
 H         -0.5324275699        2.1036049115        2.7171965937
 H          1.0818847351        2.5710247639        1.1324239519
 C          0.1319488752        2.8773200041       -0.7452528536
 C         -1.1554961579        2.6332872220       -1.4671731650
 C         -1.0738414514        3.7144863966       -0.4346459494
 H         -1.0844727737        4.7446025536       -0.7563766231
 H         -1.5691049783        3.5372478482        0.5080197692
 H         -1.1993258010        2.9059297696       -2.5105792144
 H         -1.7157825782        1.7441485857       -1.2264596860
 H          0.9185203833        3.3538380377       -1.3227131495
