  62
        -98.94156656
 C         -1.2701350295       -1.5755333303       -0.2789214190
 C         -1.3908225195       -0.1657537003       -0.3581670892
 C         -2.5493314997        0.4160473897        0.3412789105
 C         -3.3999229099       -0.3866334802        1.0042910004
 C         -4.6450039901        0.0718371298        1.7057658700
 C         -5.8576729798        0.0366916696        0.7648977597
 C         -5.6134009595        0.7120242895       -0.5847258303
 H         -4.8642421193        0.1409166595       -1.1379137601
 H         -6.5453316694        0.6517499795       -1.1512583405
 C         -5.1652149096        2.1771289696       -0.4901916503
 H         -5.4019056599        2.5729338596        0.4980298396
 H         -5.7305509794        2.7631402895       -1.2179454305
 C         -3.6819481295        2.4066632096       -0.7864900800
 H         -3.4209557993        1.9333294495       -1.7361162498
 H         -3.5224763895        3.4817851496       -0.9012957600
 C         -2.7036604998        1.9098785897        0.2850014603
 H         -1.7126994197        2.3009558297        0.0383701906
 H         -2.9973087100        2.3017936298        1.2605997002
 H         -6.6987525200        0.5177402897        1.2676095994
 H         -6.1237819697       -1.0070904304        0.5820171697
 H         -4.8308219103       -0.5965341402        2.5481821600
 H         -4.4935946702        1.0816215298        2.0820060500
 O         -3.2449223298       -1.7342765102        1.0684890705
 C         -2.1848596697       -2.3564714602        0.4331845608
 O         -2.1679466996       -3.5971898902        0.5664297509
 H          1.2911263904       -0.2210488201       -0.0228585985
 C          1.6752956503       -1.1578786201        0.3491483617
 C          1.0684369405       -2.3485109702       -0.0292689684
 C          1.5613593304       -3.5431389801        0.4835318519
 C          2.6359330102       -3.5459014800        1.3547210621
 C          3.2536295200       -2.3602284499        1.7092053022
 C          2.7705573301       -1.1607391800        1.1995364120
 N          3.3728054000        0.0651059801        1.5293184020
 S          3.7462718003        1.1058621400        0.2631929320
 O          3.9883233206        0.3686340499       -0.9551885878
 O          4.8629710601        1.8864248601        0.7591460423
 C          2.3480491403        2.1881109899        0.0900925916
 C          1.8481268306        2.4569619998       -1.1666357986
 C          0.8104771606        3.3656796697       -1.2930176689
 C          0.2946536903        3.9837417098       -0.1655780491
 C          0.8053202199        3.6977130199        1.0920911211
 C          1.8454958799        2.7936310900        1.2245358514
 H          2.2715556297        2.5479870301        2.1833396215
 H          0.3930784397        4.1745311400        1.9671076209
 H         -0.5140368597        4.6911742798       -0.2665353193
 H          0.4019950908        3.5770732896       -2.2679077490
 H          2.2678007108        1.9420350597       -2.0157109384
 H          4.1526846898       -0.0125319299        2.1670963422
 H          4.1014024399       -2.3598425198        2.3780901924
 H          3.0028449101       -4.4799043599        1.7528930223
 H          1.0824799205       -4.4718009501        0.2086400218
 C         -0.1335753493       -2.3434830703       -0.9372237087
 H         -0.4966677892       -3.3810334703       -1.0087863787
 C          0.1566297110       -1.8752911704       -2.3567459386
 C          1.4247965011       -1.2164727904       -2.8016692584
 C          1.1398490513       -2.6311533304       -3.2018850183
 H          0.8898440416       -2.8440481605       -4.2304715484
 H          1.7113884312       -3.4087475404       -2.7167868481
 H          1.3385680013       -0.4441771304       -3.5519543584
 H          2.2118003409       -1.0299396703       -2.0874484182
 H         -0.7468346588       -1.5405549205       -2.8574339389
 O         -0.5917934994        0.5825882097       -0.9745934590
