  62
        -98.94447577
 C         -1.7465741004       -0.7700683598        0.0674153297
 C         -2.9471869404       -1.2169635998        0.6702269497
 C         -4.1819993604       -0.9111868195       -0.0598910102
 C         -4.1174818404       -0.2636415193       -1.2375485101
 C         -5.2880788404        0.1079753310       -2.1069925299
 C         -5.9705465903        1.4219913009       -1.7023490696
 C         -6.7988944203        1.3573417807       -0.4183872396
 H         -7.4982906703        0.5230499708       -0.4803433198
 H         -7.3892296402        2.2746824008       -0.3722621694
 C         -5.9676628102        1.2406289804        0.8669309903
 H         -6.3484075601        1.9431763003        1.6117507305
 H         -4.9335980102        1.5256484004        0.6584056503
 C         -5.9802548403       -0.1482666998        1.5057869400
 H         -6.9923033903       -0.3894721798        1.8381185100
 H         -5.3330313803       -0.1266398600        2.3862975400
 C         -5.4872975604       -1.2710026296        0.5834588698
 H         -6.2380352005       -1.4924801594       -0.1745094503
 H         -5.3244253905       -2.1658677497        1.1889199696
 H         -6.6324946803        1.7111631712       -2.5219332596
 H         -5.2056581202        2.1961539409       -1.6047612495
 H         -6.0199102905       -0.7001985390       -2.1035919101
 H         -4.8984134704        0.2208996712       -3.1209805999
 O         -2.9406988904        0.1250539407       -1.7976569700
 C         -1.7306512204       -0.0940970595       -1.1523188301
 O         -0.7381087404        0.3452793206       -1.7635422101
 O         -2.9841379204       -1.8368807700        1.7666231595
 C         -0.4334204904       -1.0183414800        0.7870955096
 C          0.2277824997        0.2949542799        1.1249739299
 C         -0.5086275202        1.2540933298        1.8171928301
 C          0.0545175299        2.4674403997        2.1584581804
 C          1.3651663299        2.7521625296        1.8157271504
 C          2.1120247198        1.8015784897        1.1319002802
 C          1.5443349097        0.5784512498        0.7981347099
 H          2.1394549997       -0.1428081501        0.2649028997
 N          3.4573157398        2.0430512597        0.8173289102
 S          4.0945302598        1.5629872600       -0.6555976800
 O          5.3082443798        2.3443083499       -0.7806347698
 O          3.1428918797        1.6976826603       -1.7320791399
 C          4.5449021496       -0.1430349501       -0.4213435304
 C          5.2805476596       -0.4861369304        0.6959885095
 C          5.6713908796       -1.8053279805        0.8597238492
 C          5.3297003295       -2.7518465702       -0.0945017409
 C          4.5927294194       -2.3903158199       -1.2123158808
 C          4.1948400595       -1.0728204599       -1.3800256505
 H          3.6087989495       -0.7490189297       -2.2262190105
 H          4.3247783094       -3.1270879698       -1.9532515510
 H          5.6355243594       -3.7783069303        0.0335541388
 H          6.2415610796       -2.0920105907        1.7284817192
 H          5.5318537397        0.2785502794        1.4115082697
 H          3.7919850299        2.9602238096        1.0756589404
 H          1.8060580300        3.7024768995        2.0762963806
 H         -0.5305697900        3.2015201796        2.6920443406
 H         -1.5335549602        1.0323402998        2.0823895401
 H         -0.7140334404       -1.5076539602        1.7321886495
 C          0.4501563095       -1.9611992699       -0.0005689406
 C          1.4390776995       -2.8287367801        0.7177539492
 C          0.2122267394       -3.4364428599        0.1089401591
 H          0.3197029293       -4.0417696897       -0.7784297211
 H         -0.5806465106       -3.7625929900        0.7661196490
 H          2.3939092394       -3.0179321101        0.2515656391
 H          1.4817982895       -2.7459712504        1.7930861692
 H          0.7194622495       -1.5676593997       -0.9748252105
