  62
        -98.93675518
 C         -2.4181753363       -1.1519298501        0.1509184905
 C         -2.4689144135        0.0557154117       -0.5885578037
 C         -3.8169989184        0.5428451962       -0.9260637943
 C         -4.8952432497       -0.1576544068       -0.5329610537
 C         -6.3197768927        0.2543220635       -0.7634526892
 C         -6.8526637099        1.0867477820        0.4112664686
 C         -5.9242782502        2.2259144551        0.8326795981
 H         -6.4160980813        2.7609250155        1.6479781728
 H         -5.0011642494        1.8035028552        1.2364357409
 C         -5.5787567245        3.2127794033       -0.2912292669
 H         -5.6635038459        4.2295964232        0.0978204828
 H         -6.2994655586        3.1156203188       -1.1039408216
 C         -4.1623217993        3.0675370965       -0.8509960776
 H         -3.9515516842        3.9409469037       -1.4738354867
 H         -3.4400195355        3.0693563998       -0.0305553392
 C         -3.9087861636        1.8219847623       -1.7096140099
 H         -4.6735137893        1.7461873952       -2.4853275543
 H         -2.9362989983        1.9461312209       -2.1952119929
 H         -6.9926897828        0.4246135262        1.2688294091
 H         -7.8267557092        1.4927246469        0.1326481005
 H         -6.3818644347        0.8270600961       -1.6866121717
 H         -6.9266383402       -0.6470949093       -0.8636392812
 O         -4.8070460078       -1.3109276938        0.1783365639
 C         -3.5761824246       -1.8214781914        0.5551913703
 O         -3.6435360376       -2.8595779990        1.2433572049
 H          1.3720413336       -0.9102726805       -0.3375050799
 C          1.0437009873       -0.3956309051        0.5498702282
 C         -0.1803081883       -0.6895223253        1.1273098122
 C         -0.5761394190        0.0281847108        2.2536536513
 C          0.2322335811        1.0144075912        2.7836565222
 C          1.4623901043        1.2930478943        2.2142730510
 C          1.8635769130        0.5872738788        1.0867489474
 N          3.0923591650        0.8662346614        0.4677302447
 S          3.9465948493       -0.4037101766       -0.2400361001
 O          3.4620377043       -0.6163171665       -1.5803711909
 O          3.9331011602       -1.5568709959        0.6329433818
 C          5.5818502244        0.3063966635       -0.3005977373
 C          6.4971618657       -0.0085594772        0.6858531639
 C          7.7544815963        0.5735283937        0.6444213156
 C          8.0722585993        1.4581997369       -0.3750889659
 C          7.1432766287        1.7640320021       -1.3587834560
 C          5.8848827722        1.1847353479       -1.3240547243
 H          5.1337588702        1.3849702234       -2.0704532594
 H          7.3948211154        2.4499217240       -2.1515981982
 H          9.0511423269        1.9100123446       -0.4052043879
 H          8.4799417214        0.3352197774        1.4054810294
 H          6.2081768850       -0.7077880556        1.4539797899
 H          3.6909730686        1.4609677274        1.0238449850
 H          2.0983851952        2.0596360063        2.6304455656
 H         -0.0920920525        1.5654413911        3.6538927539
 H         -1.5350630843       -0.1958034706        2.7027171687
 C         -1.0992837854       -1.7610519699        0.5944213162
 H         -1.3599219101       -2.4248521754        1.4365476113
 C         -0.4356133605       -2.6389165879       -0.4559312700
 C         -1.2493731624       -3.4231967586       -1.4401085723
 C         -0.4114177128       -2.2732313185       -1.9080546944
 H          0.4882330589       -2.4798305440       -2.4701739195
 H         -0.9040066447       -1.3595739792       -2.2011412880
 H         -0.9320990288       -4.4262141006       -1.6826140923
 H         -2.3221593385       -3.2978107063       -1.4137848002
 H          0.4520487139       -3.1308580648       -0.0666214443
 O         -1.4554056125        0.7052191522       -0.9534067915
