  62
        -98.94570184
 C         -2.5611696285       -0.1430467769        0.0736385390
 C         -2.4296503788       -1.2070714897       -0.8481846543
 C         -1.8931803239       -2.4603810108       -0.3088133326
 C         -1.5625709390       -2.5372110828        0.9933470258
 C         -0.9863217506       -3.7394160640        1.6907110009
 C          0.5339528696       -3.8702887151        1.5228926137
 C          0.9937574103       -4.3583952350        0.1483067224
 H          2.0415308263       -4.6494901211        0.2450642098
 H          0.4300384560       -5.2495202973       -0.1312774769
 C          0.8808544298       -3.3039583418       -0.9613033233
 H          0.8038964468       -2.3095046096       -0.5146603453
 H          1.7957706179       -3.3014538162       -1.5597219641
 C         -0.2851551184       -3.5106912950       -1.9283871886
 H         -0.2958835244       -2.6674464575       -2.6245569283
 H         -0.1242465369       -4.4243532756       -2.5062803429
 C         -1.6634837519       -3.5957434516       -1.2607743772
 H         -2.4245696225       -3.5297261969       -2.0428438766
 H         -1.7722844486       -4.5500795796       -0.7454688667
 H          0.9908825761       -2.8989609821        1.7292316710
 H          0.8874135115       -4.5782170379        2.2763610199
 H         -1.2081722599       -3.6175304590        2.7530160656
 H         -1.4759795115       -4.6459118591        1.3331202744
 O         -1.7370836664       -1.5023816227        1.8564812859
 C         -2.1986708109       -0.2729338947        1.4148142545
 O         -2.2599713928        0.6019152762        2.3007306813
 O         -2.7448050268       -1.1116346389       -2.0673420657
 C         -3.0003073881        1.2188365595       -0.4283838360
 C         -1.9029615962        2.2328006482       -0.2024065239
 C         -2.1501089219        3.5723224230        0.0690370529
 C         -1.0980724357        4.4533082653        0.2581618785
 C          0.2133508508        4.0204568029        0.2025390605
 C          0.4712587153        2.6787143281       -0.0631383133
 C         -0.5823401818        1.8122995566       -0.2942521372
 H         -0.3686358083        0.7803736804       -0.5314292180
 N          1.7883764404        2.1897411230       -0.0531990829
 S          2.1285908924        0.5751117357       -0.3506078677
 O          1.8297693078        0.2244164089       -1.7231420228
 O          1.5081144517       -0.2248347302        0.6748856311
 C          3.8943593645        0.5984864304       -0.1100451290
 C          4.7359532650        0.6191739103       -1.2056684949
 C          6.1059539044        0.6637826458       -0.9986265051
 C          6.6080642168        0.6886864887        0.2936125608
 C          5.7509426464        0.6652915235        1.3841172377
 C          4.3806362680        0.6198955535        1.1834309523
 H          3.6750246541        0.5913062693        1.9978121255
 H          6.1444348588        0.6814606268        2.3876802122
 H          7.6742320195        0.7234440437        0.4526201900
 H          6.7745361680        0.6783381323       -1.8442078602
 H          4.2990349722        0.5897216317       -2.1908654739
 H          2.4843139384        2.8273131936       -0.4092345432
 H          1.0306707145        4.7038348130        0.3713192385
 H         -1.3049268573        5.4927004429        0.4634688945
 H         -3.1663194389        3.9258240015        0.1348344669
 H         -3.1399903424        1.1001872476       -1.5145777267
 C         -4.3215082469        1.6270384710        0.1910119670
 C         -5.3106698185        2.4387635059       -0.5896210936
 C         -5.5814756934        0.9914766941       -0.3132514735
 H         -6.3499551680        0.7333785412        0.3996351465
 H         -5.4861097394        0.2870154619       -1.1268431817
 H         -5.8989590719        3.1766484451       -0.0652725566
 H         -5.0450029493        2.7176297615       -1.5982605966
 H         -4.2399147761        1.8010436097        1.2580300059
