  62
        -98.93339455
 C         -2.3150138978       -0.7989759135        0.1643606024
 C         -2.5658488355        0.5770605493        0.3983545947
 C         -3.8046167182        1.1423946994       -0.1627147962
 C         -4.6380983518        0.3415153595       -0.8521998918
 C         -5.9392811945        0.6328682355       -1.5703283083
 C         -6.6837999684        1.9443727216       -1.3352114188
 C         -7.2758119279        2.1004436765        0.0651098272
 H         -7.6909674394        3.1069585368        0.1506880868
 H         -8.0990763618        1.3901714491        0.1750476364
 C         -6.3071399624        1.8628489828        1.2208997844
 H         -5.9582128732        0.8283936150        1.2015039149
 H         -6.8604279970        1.9979588030        2.1542669826
 C         -5.0961747888        2.7928826094        1.2615814668
 H         -5.4293721747        3.8324333401        1.2453946277
 H         -4.5810879618        2.6218076110        2.2108543446
 C         -4.0667554901        2.5905823518        0.1361510083
 H         -4.3581930563        3.1217899562       -0.7669083941
 H         -3.1137640395        3.0114088162        0.4703037787
 H         -7.5132717241        1.9630171155       -2.0473059833
 H         -6.0441252326        2.7884812428       -1.5752269264
 H         -5.7114879184        0.5505253819       -2.6387550299
 H         -6.6036508293       -0.2038264583       -1.3324123250
 O         -4.3574558479       -0.9778811508       -1.0499038410
 C         -3.2109727214       -1.5828758459       -0.5605741330
 O         -3.1368437137       -2.7948525561       -0.8412250523
 H          1.2503802079        0.0651772383        0.5621308324
 C          1.1668795988       -0.6617462738       -0.2330111892
 C          0.0470828832       -1.4767551263       -0.3145117677
 C         -0.0442855982       -2.3879212523       -1.3621541579
 C          0.9710270293       -2.4816655128       -2.2959685807
 C          2.0991568963       -1.6864802741       -2.1965501618
 C          2.1939856923       -0.7642796937       -1.1610081617
 N          3.3132336943        0.0757361833       -1.0491809340
 S          3.8586158789        0.4834357993        0.4959802316
 O          3.8300008906       -0.6804432666        1.3529797853
 O          3.1298203792        1.6369544196        0.9602779416
 C          5.5430258060        0.9428730853        0.1330960957
 C          5.7963142356        2.2142623605       -0.3464076597
 C          7.1004453218        2.5650413965       -0.6573110326
 C          8.1234942500        1.6442258994       -0.4852693134
 C          7.8540935048        0.3728267270       -0.0014563905
 C          6.5517912009        0.0148532046        0.3102766257
 H          6.2960520415       -0.9583145534        0.6975284829
 H          8.6518778273       -0.3393688085        0.1346261664
 H          9.1376252895        1.9206574633       -0.7268941875
 H          7.3140247653        3.5535731987       -1.0306634619
 H          4.9704855471        2.8982716578       -0.4537070718
 H          4.0731496675       -0.1973529701       -1.6573206999
 H          2.8964751025       -1.7721402633       -2.9192342038
 H          0.8885124797       -3.1923530189       -3.1045153491
 H         -0.9226727989       -3.0092016705       -1.4422302125
 C         -1.0300585761       -1.3691881109        0.7390396806
 H         -0.6913750205       -0.6269821289        1.4755392235
 C         -1.2152522887       -2.6960171388        1.4501126909
 C         -0.1385035486       -3.1669001942        2.3797863874
 C         -1.4566706075       -2.7106241487        2.9280198968
 H         -2.1315673350       -3.4502041241        3.3321096099
 H         -1.4943619542       -1.7589961614        3.4384781316
 H          0.0925577061       -4.2206795758        2.4079631760
 H          0.7210458165       -2.5256213834        2.5135062575
 H         -1.7283098894       -3.4388964967        0.8537550293
 O         -1.7802019976        1.3132729619        1.0554331376
