  62
        -98.94039849
 C          1.1597805603       -1.0379613011        0.5184291746
 C          2.3232043938       -1.2585483921       -0.2597301216
 C          3.1546376624       -0.0870991750       -0.5812989801
 C          2.7711481286        1.1277318498       -0.1475140630
 C          3.3687228944        2.5018690203       -0.3701095109
 C          4.7833925096        2.6583893792       -0.9217901114
 C          5.8919487478        2.1867882007        0.0188198996
 H          6.8425134575        2.2508711225       -0.5151078038
 H          5.9404540011        2.8721043769        0.8686948360
 C          5.7275403039        0.7745014217        0.5743937469
 H          4.8265875906        0.7250154920        1.1890852167
 H          6.5779606090        0.5727017732        1.2312201731
 C          5.6748004312       -0.3371905840       -0.4716166836
 H          6.5509645381       -0.2745048479       -1.1198879384
 H          5.7196496166       -1.2914254630        0.0599938700
 C          4.4137983373       -0.3593805862       -1.3532684491
 H          4.5045043709        0.3262279375       -2.1928826375
 H          4.3069735343       -1.3670389855       -1.7656508605
 H          4.9319848591        3.7273429784       -1.0979657221
 H          4.8661911783        2.1672666949       -1.8869520415
 H          2.6739449873        3.0159475259       -1.0445058682
 H          3.3014933338        3.0170816608        0.5935088003
 O          1.6408012683        1.2960533258        0.5947729817
 C          0.8087718695        0.2428875799        0.9423621038
 O         -0.1708720645        0.5968808031        1.6265780543
 H         -1.5596902802       -0.4072082320        0.1240166490
 C         -1.6484102643       -1.3009465241       -0.4716380239
 C         -0.7866168643       -2.3650510125       -0.2474888428
 C         -0.9220105505       -3.5098849620       -1.0234881910
 C         -1.8881032578       -3.5778328013       -2.0119724417
 C         -2.7168412652       -2.4988643966       -2.2611898024
 C         -2.5880212624       -1.3494423217       -1.4893717269
 N         -3.4013378505       -0.2291067762       -1.7117718701
 S         -2.7596326233        1.3063780265       -1.5078022781
 O         -3.6226990884        2.1570686037       -2.3056141601
 O         -1.3565518064        1.3519767275       -1.8536550159
 C         -3.0272747329        1.6995491310        0.2056488335
 C         -4.1029537384        1.1415404902        0.8669725336
 C         -4.3339145620        1.4983881697        2.1853162516
 C         -3.4954074000        2.4066293229        2.8131434188
 C         -2.4242305242        2.9617191371        2.1324231115
 C         -2.1850768908        2.6062337630        0.8148379029
 H         -1.3498011946        3.0000761127        0.2574727314
 H         -1.7653565372        3.6601839722        2.6228448450
 H         -3.6742023429        2.6806507474        3.8411713171
 H         -5.1638686339        1.0644880714        2.7198163225
 H         -4.7300219362        0.4337765614        0.3506353791
 H         -4.0001008146       -0.2826676279       -2.5230133721
 H         -3.4521657945       -2.5396449278       -3.0502701390
 H         -1.9838916726       -4.4722238284       -2.6087048015
 H         -0.2502872835       -4.3401980704       -0.8632384132
 C          0.2931486870       -2.2534857215        0.8029231952
 H          0.9595052087       -3.1197541035        0.6902802864
 C         -0.3051651934       -2.2831428440        2.1948910129
 C         -0.7194695223       -3.5994410696        2.7786984855
 C          0.4810221109       -2.8837485368        3.3197920259
 H          0.4163125690       -2.4235932395        4.2940961334
 H          1.4590525848       -3.2810045989        3.0896116676
 H         -0.5546850177       -4.4854005473        2.1845146250
 H         -1.6124574573       -3.6344979818        3.3831283449
 H         -0.9125388384       -1.4163937720        2.4193340157
 O          2.6579654477       -2.4016212706       -0.6756768240
