  62
        -98.95134114
 C         -2.3331277900       -0.1835213694        0.1101669300
 C         -1.6153851299        0.4083937103       -0.9557302101
 C         -1.5291482199        1.8732718103       -0.9344517005
 C         -2.0410907899        2.5542342706        0.1068663393
 C         -2.0464430299        4.0497393006        0.2730403589
 C         -0.7333050999        4.6199794908        0.8256388988
 C          0.4227131401        4.6738918205       -0.1734825512
 H          0.0856058102        5.1553999902       -1.0925420613
 H          1.1939685201        5.3099533506        0.2656465687
 C          1.0431042901        3.3088023504       -0.5017843607
 H          0.7782229001        2.5850760706        0.2730024894
 H          2.1332636501        3.3935254904       -0.4874890307
 C          0.6546934202        2.7453204000       -1.8679257706
 H          1.1359656002        1.7714036400       -1.9766737703
 H          1.0368044102        3.4006436498       -2.6545072108
 C         -0.8532724298        2.5637091500       -2.0823914606
 H         -1.3227204698        3.5320435799       -2.2586814509
 H         -0.9964450498        1.9402131597       -2.9687302005
 H         -0.9379076499        5.6371969709        1.1685070685
 H         -0.4324489200        4.0285504510        1.6941032690
 H         -2.2779738898        4.5252890404       -0.6808376413
 H         -2.8471058199        4.2792871308        0.9796637988
 O         -2.6571879400        1.9415463609        1.1528089294
 C         -2.8220015200        0.5671595509        1.1780879898
 O         -3.4180423701        0.1376344312        2.1888329599
 O         -1.0857617698       -0.2516040000       -1.8884980699
 C         -2.5241420200       -1.6899769694        0.1560521204
 C         -1.1790306700       -2.3730521094        0.2057268407
 C         -0.8432545000       -3.4797445696       -0.5639884690
 C          0.4210354200       -4.0372471996       -0.4744796787
 C          1.3805423500       -3.4912656494        0.3588643312
 C          1.0510854400       -2.3878428192        1.1374981608
 C         -0.2281170600       -1.8602885192        1.0786034306
 H         -0.4733800500       -1.0066064390        1.6936195504
 N          1.9978616099       -1.7650180989        1.9785318307
 S          2.3787672400       -0.1712761390        1.6167098303
 O          3.4366463899        0.1810074012        2.5393343203
 O          1.1920123300        0.6419549710        1.6679630000
 C          3.0425931001       -0.2516393695       -0.0375113196
 C          4.4135843701       -0.1894419796       -0.2010297296
 C          4.9477295901       -0.3313347999       -1.4711256095
 C          4.1061279902       -0.5467375802       -2.5524370895
 C          2.7338453002       -0.6128254902       -2.3711470996
 C          2.1908022601       -0.4636935098       -1.1033797996
 H          1.1239228401       -0.5051927297       -0.9487017297
 H          2.0684513902       -0.7779629304       -3.2036573496
 H          4.5201972102       -0.6635298705       -3.5414782294
 H          6.0151485501       -0.2781139400       -1.6127771995
 H          5.0272507000       -0.0239840493        0.6697845004
 H          2.8542237799       -2.2923184789        2.0850872509
 H          2.3747056800       -3.9093585294        0.4071367013
 H          0.6684999101       -4.8972252998       -1.0776715485
 H         -1.5696682499       -3.9022936598       -1.2385167489
 H         -3.0458819200       -1.8993727991        1.1018148005
 C         -3.3939719199       -2.1469682997       -0.9964945295
 C         -4.2577320499       -3.3632246996       -0.8549892992
 C         -4.8804348099       -2.0005971096       -0.8812233596
 H         -5.4392772799       -1.7026159399       -1.7555221797
 H         -5.2672831500       -1.5942719994        0.0424234403
 H         -4.3941739099       -4.0023134299       -1.7142831890
 H         -4.2319110400       -3.8885457594        0.0878073610
 H         -2.9453562099       -1.9443618500       -1.9619920795
