  62
        -98.94229358
 C          1.1660793929        1.2041982315       -0.0371145718
 C          1.6306674163        0.2280368768        0.8721782902
 C          2.6840447169       -0.6802239418        0.3889897184
 C          3.1163013242       -0.5713230771       -0.8810936947
 C          4.1187695499       -1.3936342394       -1.6640834609
 C          5.0929727335       -2.3276271622       -0.9505050270
 C          6.1328113885       -1.6246517102       -0.0789879405
 H          6.7107412232       -2.3893623343        0.4445557540
 H          6.8182599763       -1.0762163499       -0.7298950783
 C          5.5747460360       -0.6367866072        0.9421936615
 H          6.4183919336       -0.2181343054        1.4974180313
 H          5.0883930786        0.1913569397        0.4227063479
 C          4.5983192507       -1.2282626371        1.9570685974
 H          5.0552464468       -2.0895610421        2.4480113822
 H          4.4160457769       -0.4660885323        2.7192513509
 C          3.2304342656       -1.6535309561        1.3934138874
 H          2.5152097151       -1.6735960833        2.2212099423
 H          3.2656120961       -2.6565560939        0.9735055253
 H          4.5479210756       -3.0679010495       -0.3720301139
 H          5.6298879014       -2.8714340312       -1.7326761407
 H          3.5244054694       -1.9868395573       -2.3686906966
 H          4.6858240032       -0.6765906745       -2.2664459597
 O          2.6104643418        0.3652599373       -1.7365517889
 C          1.6338723977        1.2680923317       -1.3477813764
 O          1.2789517663        2.0576970358       -2.2436837134
 O          1.1747983235        0.1090576586        2.0423384799
 C          0.0782100270        2.1643552182        0.4013978118
 C         -1.1750409323        1.9730124381       -0.4186638664
 C         -2.0319920295        3.0164003419       -0.7484139841
 C         -3.1840350622        2.7720677822       -1.4756807659
 C         -3.5201841662        1.4892279439       -1.8687368160
 C         -2.6718302916        0.4382055162       -1.5400029912
 C         -1.5124402416        0.6897620933       -0.8248238955
 H         -0.8475539681       -0.1307959187       -0.6049817033
 N         -2.9664299904       -0.8800524570       -1.9166720925
 S         -2.5273658711       -2.1479983409       -0.9210743401
 O         -1.1099216419       -2.3975127164       -1.0123847406
 O         -3.3847348112       -3.2370647670       -1.3398780268
 C         -2.9831962858       -1.6221198707        0.7216135455
 C         -2.0198135491       -1.3265055458        1.6632082037
 C         -2.4189640184       -0.8727842799        2.9108284080
 C         -3.7669666784       -0.7255675966        3.1956319817
 C         -4.7248887687       -1.0372854721        2.2420236724
 C         -4.3317031325       -1.4864573296        0.9926367070
 H         -5.0461985695       -1.7481203031        0.2291926700
 H         -5.7732768773       -0.9272972105        2.4676107584
 H         -4.0713401793       -0.3682566068        4.1667353463
 H         -1.6641976496       -0.6295481535        3.6418115237
 H         -0.9750207182       -1.4412205719        1.4201245607
 H         -3.8746796589       -1.0169204132       -2.3343016198
 H         -4.4205035798        1.3011594503       -2.4329738573
 H         -3.8349920442        3.5931273348       -1.7346465633
 H         -1.7929918075        4.0219726033       -0.4433199928
 H         -0.1577305988        1.8823627705        1.4395210719
 C          0.5888708436        3.5909823303        0.3896058055
 C          0.0982852191        4.5835615441        1.3999960341
 C          1.4919835184        4.0426617161        1.4971260608
 H          2.3198582858        4.6922070291        1.2555954076
 H          1.7118525134        3.3286481076        2.2775034485
 H         -0.0294063500        5.6106431459        1.0927565462
 H         -0.6256892191        4.2442110110        2.1252225315
 H          0.8107886777        3.9424412318       -0.6118004569
