  62
        -98.94582849
 C         -1.5682683554       -1.4378486667       -0.1833530804
 C         -1.5602393238       -0.0506637832       -0.4683351339
 C         -2.8802333670        0.5653123033       -0.6681682018
 C         -3.9840513319       -0.2001882550       -0.5921102983
 C         -5.3898445039        0.3100315106       -0.7195960264
 C         -5.9673054946        0.6927680276        0.6504053889
 C         -5.0444795061        1.5827081146        1.4832989293
 H         -5.5673597108        1.8102550523        2.4149088933
 H         -4.1479309294        1.0175747290        1.7483330085
 C         -4.6323700339        2.8914457959        0.7948432414
 H         -4.7247827274        3.7081360311        1.5139753066
 H         -5.3146752547        3.1067886413       -0.0283125341
 C         -3.1920659719        2.9114028873        0.2790167318
 H         -2.5122605174        2.6033885549        1.0774111753
 H         -2.9420718436        3.9420292657        0.0140501460
 C         -2.9126958565        2.0404641279       -0.9522205188
 H         -3.6368662481        2.2681348485       -1.7369152072
 H         -1.9127674825        2.2926021059       -1.3168512738
 H         -6.9212880360        1.1997173348        0.4939089967
 H         -6.1587916091       -0.2237237139        1.2135619020
 H         -5.3990913729        1.1725097561       -1.3831150992
 H         -6.0049400270       -0.4790650007       -1.1554498250
 O         -3.9478194056       -1.5338407639       -0.3360489812
 C         -2.7435622085       -2.1830553686       -0.1120266200
 O         -2.8516865623       -3.4007890516        0.1399025444
 H          2.3905107304       -1.3308264082        0.0326639485
 C          1.8638025625       -1.0681499597        0.9336468075
 C          0.5395037904       -1.4337136461        1.1106817740
 C         -0.0844037741       -1.1143979423        2.3145732014
 C          0.5926361387       -0.4227568448        3.2994672458
 C          1.9027038498       -0.0215513189        3.1016036835
 C          2.5392535145       -0.3500602884        1.9115894341
 N          3.8677937022        0.0296481387        1.6840309424
 S          4.4245449746        0.3306997448        0.1399244841
 O          4.6768329255       -0.9135101552       -0.5445739179
 O          5.5847870059        1.1732557169        0.3448942584
 C          3.1570918830        1.2542844211       -0.7092501951
 C          2.7326894580        0.8312410618       -1.9513089577
 C          1.7747851153        1.5726595804       -2.6219996742
 C          1.2582740369        2.7179729688       -2.0397781937
 C          1.6941631036        3.1301260969       -0.7912668114
 C          2.6544025815        2.3948347938       -0.1177005235
 H          3.0132531037        2.6943780985        0.8538738361
 H          1.2814785070        4.0171100512       -0.3378498568
 H          0.5056292917        3.2888474186       -2.5609194433
 H          1.4260029220        1.2482675662       -3.5900333045
 H          3.1542732197       -0.0718193297       -2.3649689613
 H          4.2619391715        0.6610548757        2.3648931057
 H          2.4276988585        0.5359782179        3.8620506039
 H          0.0934559833       -0.1800769559        4.2256913871
 H         -1.1148435181       -1.4096738314        2.4619599390
 C         -0.2494487993       -2.1535942314        0.0449223250
 H         -0.4991155191       -3.1601277755        0.4109720192
 C          0.4968556625       -2.2780731538       -1.2673251530
 C          1.4627846331       -3.4020590641       -1.4867817715
 C          0.1484933245       -3.3908666539       -2.2071835672
 H          0.1414504758       -3.1879917821       -3.2675953082
 H         -0.6157784105       -4.0860209834       -1.8908359197
 H          1.5943227739       -4.1117265016       -0.6837757565
 H          2.3653486819       -3.2073276535       -2.0471581403
 H          0.7301832142       -1.3117913950       -1.7010105041
 O         -0.5107520963        0.6358689829       -0.5481720642
