  62
        -98.93414586
 C         -2.2518003996       -0.8872534234       -0.2345334522
 C         -3.5757167352       -1.1351852027        0.1986051090
 C         -4.6212689264       -0.2587677365       -0.3540038516
 C         -4.2781313004        0.7073859229       -1.2231394788
 C         -5.1750793062        1.6845853784       -1.9415408564
 C         -6.2979746471        2.3452072458       -1.1298896688
 C         -5.9692111574        2.5956417726        0.3490696915
 H         -4.9029745308        2.4434228132        0.5263115022
 H         -6.1936188704        3.6361967310        0.5909536032
 C         -6.7776700103        1.7080742130        1.2985105392
 H         -6.7827179120        2.1679096391        2.2896640450
 H         -7.8117861995        1.6733242084        0.9491082598
 C         -6.2581030261        0.2806310126        1.4650336039
 H         -5.3180589068        0.2916588867        2.0232701541
 H         -6.9817236690       -0.2725275844        2.0684545744
 C         -6.0135486316       -0.4924211430        0.1586445859
 H         -6.7638903729       -0.2500847022       -0.5897220167
 H         -6.0764531120       -1.5604251576        0.3836549337
 H         -6.5224725471        3.2946440681       -1.6188659879
 H         -7.1998802886        1.7382791155       -1.1947108160
 H         -5.6103217385        1.1737034184       -2.8053839559
 H         -4.5017745472        2.4531058838       -2.3288724322
 O         -2.9868994354        0.9124684561       -1.6123552781
 C         -1.9447364304        0.1377761137       -1.1272177895
 O         -0.8224714004        0.4590569698       -1.5643422718
 O         -3.8735503720       -2.0529631613        1.0088647566
 C         -1.1279121003       -1.7508246989        0.3105809069
 C         -0.1632376747       -0.8823383299        1.0791368307
 C         -0.6451514133       -0.1708663906        2.1759849230
 C          0.1860560000        0.6613530607        2.8985258441
 C          1.5139498679        0.8074734711        2.5364566682
 C          2.0080783441        0.0958464941        1.4502441216
 C          1.1725572436       -0.7526335399        0.7351285915
 H          1.5764812730       -1.2854555796       -0.1080608442
 N          3.3692120065        0.1966820191        1.1012655855
 S          3.8182881212        0.3600993389       -0.5196556546
 O          3.2487225277        1.5660532682       -1.0798624822
 O          3.5530868399       -0.8718847872       -1.2159371663
 C          5.5794614114        0.5615011441       -0.3137017426
 C          6.3492567867       -0.5624362191       -0.0814275800
 C          7.7136370305       -0.4126748508        0.1088105838
 C          8.2829765492        0.8514253352        0.0645826947
 C          7.4984094212        1.9699495878       -0.1721265449
 C          6.1327348729        1.8267933486       -0.3618911962
 H          5.4846833580        2.6660557663       -0.5578374328
 H          7.9438736368        2.9510261893       -0.2099507009
 H          9.3452802189        0.9652260751        0.2123290245
 H          8.3273244135       -1.2802757553        0.2901077634
 H          5.8639128576       -1.5241516776       -0.0642184947
 H          3.8378497333        0.9137277634        1.6410978769
 H          2.1630651028        1.4667982195        3.0931438319
 H         -0.2019308286        1.2083495873        3.7447827475
 H         -1.6867290897       -0.2778741705        2.4478499945
 H         -1.6089908134       -2.4405386150        1.0199206396
 C         -0.4821365692       -2.5605101049       -0.7922560646
 C          0.2402326560       -3.8306673931       -0.4598246935
 C         -1.0773649326       -3.8820272854       -1.1715743267
 H         -1.0918734892       -4.1593396164       -2.2149408591
 H         -1.9452806326       -4.2114699068       -0.6191547928
 H          1.1359174546       -4.0698299347       -1.0129304480
 H          0.2683777959       -4.1298894616        0.5770083689
 H         -0.0855904573       -1.9435008545       -1.5917176751
