  62
        -98.93785193
 C         -1.3387675669       -1.5028198490       -0.5684937410
 C         -2.5591982728       -1.5089123838        0.1488769975
 C         -3.5787457024       -0.5106082374       -0.2236688507
 C         -3.2987439936        0.3530547800       -1.2170824319
 C         -4.1449488362        1.4824193335       -1.7428821522
 C         -4.1451897936        2.7007328556       -0.8073585059
 C         -4.3501112230        2.3734527117        0.6692266982
 H         -4.2476332744        3.3057538742        1.2313394091
 H         -3.5484509229        1.7106127680        1.0013635773
 C         -5.7037941219        1.7595738299        1.0204265866
 H         -6.4976373147        2.4366076124        0.6973733763
 H         -5.7513314459        1.6882130180        2.1100284148
 C         -5.9819369120        0.3691046955        0.4433859051
 H         -6.2832400499        0.4273168762       -0.5991780187
 H         -6.8343946391       -0.0443762618        0.9900858838
 C         -4.8370893410       -0.6259513949        0.6026677873
 H         -5.2217203186       -1.6349384310        0.4106722719
 H         -4.5128654257       -0.6374648743        1.6496434695
 H         -4.9203837789        3.3927526349       -1.1417171824
 H         -3.1780670344        3.2016510758       -0.9037417746
 H         -5.1579990805        1.1391104725       -1.9306482015
 H         -3.7098757128        1.7804702193       -2.6995506903
 O         -2.1137023703        0.3220680913       -1.8866908861
 C         -1.1008654949       -0.5736248111       -1.5817907243
 O         -0.0863484228       -0.4368842664       -2.2896546876
 O         -2.7961778086       -2.3293774887        1.0783570480
 C         -0.2978668576       -2.5191270978       -0.1365692030
 C          0.5444166496       -1.9806240998        0.9946345907
 C          0.9323947069       -2.8005641503        2.0484235937
 C          1.7057894910       -2.2980421231        3.0798391762
 C          2.0962587798       -0.9715327701        3.0863237167
 C          1.6966362040       -0.1364079370        2.0470004148
 C          0.9384855307       -0.6505299932        1.0048850952
 H          0.6259702598        0.0050041569        0.2090374494
 N          2.0270757046        1.2207615077        2.0685089165
 S          2.0690851896        2.2132467448        0.7300751974
 O          2.6206839874        3.4479121750        1.2487800033
 O          0.7638416180        2.3091624020        0.1275340410
 C          3.2600817775        1.4756071153       -0.3725473656
 C          4.5901963875        1.5782080011       -0.0075146771
 C          5.5584395595        1.0180622832       -0.8226350705
 C          5.1826545644        0.3692076733       -1.9899470113
 C          3.8462701990        0.2788580329       -2.3426256870
 C          2.8686016226        0.8318588930       -1.5275661040
 H          1.8227986049        0.7542333927       -1.7827120772
 H          3.5463368201       -0.2223632408       -3.2488340858
 H          5.9344990807       -0.0661461050       -2.6291037758
 H          6.5988299178        1.0899870502       -0.5495423778
 H          4.8405302859        2.1111305127        0.8952887468
 H          2.6639866431        1.5109161633        2.7937954717
 H          2.6876400215       -0.5755965603        3.8973275754
 H          2.0023315112       -2.9440136693        3.8920627390
 H          0.6055430700       -3.8296982539        2.0677621633
 H         -0.8781229800       -3.3648235687        0.2675928891
 C          0.5438593873       -3.0514793519       -1.2874832421
 C          1.9762164401       -2.6728552787       -1.4959964248
 C          1.6301749289       -4.0559126550       -1.0383740046
 H          1.7409296305       -4.8740342423       -1.7336914497
 H          1.8522090228       -4.3117709765       -0.0141322815
 H          2.3107517662       -2.5264486222       -2.5107911357
 H          2.4297907890       -1.9951334102       -0.7890588195
 H         -0.0497183172       -3.1916576541       -2.1850123495
