  62
        -98.94422683
 C          2.0371722761        1.3376731168        0.1470050255
 C          2.2180928242        0.4184840611        1.2112314131
 C          2.9936732583       -0.7890433830        0.9043085775
 C          3.4794537946       -0.9574499878       -0.3392366382
 C          4.2807264019       -2.1418955267       -0.7953304143
 C          3.3832926468       -3.2363220801       -1.3880323180
 C          2.1806736472       -3.5879891754       -0.5128891056
 H          1.5096970155       -2.7271593515       -0.4702923233
 H          1.6435543733       -4.3961152918       -1.0133779134
 C          2.5363607752       -4.0249130336        0.9150624332
 H          1.9442371995       -4.9065526501        1.1699721318
 H          3.5856507848       -4.3181551151        0.9637074478
 C          2.2558006183       -2.9736337182        1.9908413790
 H          2.3189007778       -3.4616274072        2.9672443837
 H          1.2364892214       -2.5949142709        1.8787353467
 C          3.2132420582       -1.7751458287        2.0168471912
 H          3.0348726335       -1.2250542250        2.9454903131
 H          4.2463372231       -2.1288207481        2.0225370152
 H          3.0125262880       -2.8922756683       -2.3560670626
 H          3.9911074438       -4.1277515602       -1.5535117204
 H          4.9816574669       -1.8052590332       -1.5611427684
 H          4.8440805110       -2.5361786736        0.0483753628
 O          3.2595981302       -0.0719636375       -1.3418178394
 C          2.5139379066        1.0815590061       -1.1395071901
 O          2.3676502127        1.7701181565       -2.1658569930
 H         -0.7314629037        1.4017899864        1.7372234403
 C         -1.0648572953        1.7454426723        0.7666879052
 C         -0.1648587162        2.4136426224       -0.0545940490
 C         -0.5898712694        2.8288247359       -1.3103311246
 C         -1.8906200351        2.5899914852       -1.7192141622
 C         -2.7899973109        1.9404977638       -0.8922978738
 C         -2.3698593798        1.5082730075        0.3595111512
 N         -3.2700028184        0.8575243157        1.2222660984
 S         -4.2333716558       -0.3785983968        0.6423041962
 O         -5.2308061812        0.1665276056       -0.2433269238
 O         -4.7251112501       -1.0531730527        1.8214328391
 C         -3.1327917869       -1.4497457962       -0.2622789251
 C         -3.0445359824       -1.3449561242       -1.6353686164
 C         -2.1496412054       -2.1587417782       -2.3118818217
 C         -1.3649363880       -3.0582478501       -1.6077959487
 C         -1.4672597372       -3.1538398247       -0.2280509149
 C         -2.3549054109       -2.3382894650        0.4538134302
 H         -2.4696346489       -2.3887423674        1.5249244510
 H         -0.8570106812       -3.8569536032        0.3160515123
 H         -0.6704350148       -3.6909177313       -2.1375942715
 H         -2.0669037894       -2.0879447377       -3.3845253947
 H         -3.6796369532       -0.6425352774       -2.1489790785
 H         -2.8610434009        0.5997612146        2.1086615770
 H         -3.8097817044        1.7660399868       -1.1944594456
 H         -2.2113444144        2.9201721638       -2.6956794259
 H          0.1049838322        3.3210707598       -1.9707555263
 C          1.2473873568        2.6034721108        0.4430808232
 H          1.2048703197        2.6623483688        1.5395126623
 C          1.9110882809        3.8596320953       -0.0779610646
 C          1.4427706753        5.1894244036        0.4299182122
 C          2.7829524815        4.6599883900        0.8407293187
 H          3.6688807620        5.1244213442        0.4343088071
 H          2.9032553550        4.3059317047        1.8543656250
 H          1.4061315150        6.0205195722       -0.2573882731
 H          0.6512448484        5.1915900191        1.1642866147
 H          2.2183367229        3.7930461016       -1.1132794288
 O          1.7571412963        0.6057855119        2.3704327420
