  62
        -98.93761173
 C         -0.5771817113       -1.5928213342       -0.1361303848
 C         -1.4036451272       -1.0634731622        0.8850976082
 C         -2.5319784727       -0.2110900459        0.4720132889
 C         -2.6860389767        0.0763490029       -0.8334364318
 C         -3.7109412013        0.9239918689       -1.5600944837
 C         -4.9326992533        1.4657032793       -0.8229273068
 C         -5.9679014799        0.4030777012       -0.4505582075
 H         -6.7209283450        0.8648848298        0.1912822697
 H         -6.4677138216        0.0753126802       -1.3656280973
 C         -5.4187458135       -0.8424924784        0.2410088593
 H         -6.2510403137       -1.5357590398        0.3901849406
 H         -4.7006156397       -1.3393490024       -0.4144655558
 C         -4.7661038086       -0.6017555067        1.6002119030
 H         -4.5347220827       -1.5785306778        2.0334588589
 H         -5.4744291807       -0.1015598671        2.2635626532
 C         -3.4646767304        0.2154890331        1.5694022326
 H         -2.9291034323        0.0353404577        2.5057540971
 H         -3.6763743143        1.2793601451        1.5113688528
 H         -5.4180970437        2.1748445481       -1.4989695449
 H         -4.6264846333        2.0277188822        0.0544337788
 H         -3.1522912210        1.7655680851       -1.9851083600
 H         -4.0459857211        0.3252187886       -2.4135755176
 O         -1.8128947012       -0.3850673975       -1.7755149627
 C         -0.7619115869       -1.2440211258       -1.4735541458
 O         -0.1143645409       -1.6027965510       -2.4726492571
 O         -1.2141839333       -1.3125084559        2.1055600989
 C          0.5229861105       -2.5354268805        0.3154152052
 C          1.7536222162       -1.7790348169        0.7458256947
 C          2.4602612899       -2.1669646773        1.8791159762
 C          3.6052535379       -1.4918010591        2.2610129307
 C          4.0537002604       -0.4049407053        1.5329142493
 C          3.3449112710        0.0010235300        0.4074553175
 C          2.2066782013       -0.6896968635        0.0154008468
 H          1.6784439492       -0.3773481216       -0.8733907958
 N          3.7648294095        1.1124522511       -0.3367696423
 S          2.6374774737        2.1146781219       -1.0466068071
 O          2.1611388010        1.5516505973       -2.2839236005
 O          3.3246183861        3.3851674614       -1.1667030537
 C          1.2928526760        2.2933865611        0.1138581918
 C          1.5557401785        2.4011476984        1.4651480885
 C          0.5015511735        2.6125896776        2.3386218399
 C         -0.7880056266        2.7405195472        1.8485780544
 C         -1.0342126802        2.6458481572        0.4885651048
 C          0.0129295053        2.4090117708       -0.3871150494
 H         -0.1383209976        2.3026248580       -1.4504888440
 H         -2.0349356431        2.7560480427        0.1045138277
 H         -1.6056275958        2.9145900544        2.5297261444
 H          0.6898490271        2.6815368281        3.3977572535
 H          2.5675861495        2.3173773237        1.8259666476
 H          4.5379251251        1.6297286810        0.0555285796
 H          4.9429177571        0.1294574141        1.8301170933
 H          4.1484090501       -1.8065591556        3.1386678120
 H          2.0984568138       -2.9969993716        2.4673450270
 H          0.1211201053       -3.0318970287        1.2141098677
 C          0.8429005956       -3.6261982014       -0.6967939839
 C          2.0564203712       -3.6029390810       -1.5715157693
 C          1.9637025816       -4.5929531439       -0.4516910387
 H          1.8072267691       -5.6330450873       -0.6943472144
 H          2.5906569870       -4.4275850429        0.4108948119
 H          1.9460305426       -3.9452129663       -2.5890754511
 H          2.7379481527       -2.7720886299       -1.4718574973
 H         -0.0583652135       -4.0323450552       -1.1450601559
