  62
        -98.94752706
 C          1.3370334942        1.6268455551       -0.5030495392
 C          1.1946966056        0.3180436160       -1.0284611292
 C          2.3818759017       -0.5465219620       -0.9289819014
 C          3.5114954556       -0.0694677081       -0.3783877121
 C          4.7793021909       -0.8505630427       -0.1897052125
 C          4.8233590628       -1.5250392783        1.1876997791
 C          3.5567953594       -2.3086358841        1.5328911246
 H          2.7202436753       -1.6151699430        1.6527063969
 H          3.7193937584       -2.7798689638        2.5050523115
 C          3.1723199899       -3.3801480925        0.5036699498
 H          2.8944501783       -4.2914877238        1.0377507834
 H          4.0317366489       -3.6198613935       -0.1243361334
 C          1.9808937893       -3.0024030470       -0.3789961282
 H          1.1654430001       -2.6446081209        0.2562959108
 H          1.6374181483       -3.9087177459       -0.8870889545
 C          2.2568623970       -1.9472018346       -1.4585810548
 H          1.4003579767       -1.9333659328       -2.1389787688
 H          3.1462404698       -2.2267411210       -2.0278966679
 H          4.9656947617       -0.7535604689        1.9480043274
 H          5.6853033621       -2.1944426825        1.2169412807
 H          4.8578569033       -1.5996796933       -0.9751196206
 H          5.6210539994       -0.1605871265       -0.2723084983
 O          3.6165805519        1.1941471967        0.1061324498
 C          2.5355911081        2.0569005322        0.0744381495
 O          2.7670603432        3.1780590600        0.5727179085
 H         -1.2459662972        0.4479932167        0.0288813008
 C         -1.3792679251        1.1972420955        0.7908870480
 C         -0.7021116645        2.4034278812        0.6873508902
 C         -0.8747804049        3.3552822456        1.6853154498
 C         -1.6994231370        3.0961527769        2.7660889699
 C         -2.3524258415        1.8817980268        2.8793486902
 C         -2.1844630687        0.9237815509        1.8856117227
 N         -2.8382812073       -0.3142134401        1.9508414347
 S         -2.0947965974       -1.6831279607        1.3327823542
 O         -2.7938716515       -2.7830236684        1.9701204711
 O         -0.6665202057       -1.6563539626        1.5497303050
 C         -2.5003708367       -1.7012936069       -0.4005023411
 C         -3.5537443612       -0.9459970633       -0.8738871872
 C         -3.8700950947       -1.0119455394       -2.2213047830
 C         -3.1376583112       -1.8306631981       -3.0662039975
 C         -2.0891568809       -2.5895439317       -2.5722361866
 C         -1.7669429426       -2.5272988199       -1.2265744621
 H         -0.9504549897       -3.0924297415       -0.8075484411
 H         -1.5156356653       -3.2232061460       -3.2299758113
 H         -3.3814776595       -1.8741446203       -4.1162456588
 H         -4.6833353974       -0.4187026505       -2.6081656965
 H         -4.0975325676       -0.3086355883       -0.1964333746
 H         -3.3326144557       -0.5043475520        2.8098445552
 H         -2.9823287321        1.6726747314        3.7306823027
 H         -1.8251795921        3.8423753786        3.5360440171
 H         -0.3432303425        4.2934083850        1.6191668937
 C          0.2138133970        2.6544480107       -0.4862684364
 H          0.7023910729        3.6258216346       -0.3295870011
 C         -0.5724321277        2.7152010560       -1.7815552712
 C         -1.3388955256        3.9607363530       -2.1059369202
 C         -0.1038820799        3.6163565572       -2.8822264847
 H         -0.2090787517        3.2793359201       -3.9023288938
 H          0.7892834897        4.1984347205       -2.7055604608
 H         -1.2832110417        4.7801047344       -1.4052083249
 H         -2.2962581023        3.8625417039       -2.5936751712
 H         -1.0055441743        1.7657621644       -2.0662691987
 O          0.1491528085       -0.1271729288       -1.5711694316
