  62
        -98.94340251
 C          2.5020970428        1.1336437998       -0.0037488627
 C          3.4665806182        0.5995392631        0.8930299448
 C          4.4208984605       -0.3649681855        0.3340611272
 C          4.3492400345       -0.6733432783       -0.9732649804
 C          5.2197042340       -1.6786750498       -1.6683871422
 C          4.5823784502       -3.0751188575       -1.6449258760
 C          4.0999789541       -3.5109473521       -0.2612320068
 H          3.2737296861       -2.8664380925        0.0479604208
 H          3.6985517788       -4.5217746281       -0.3605167943
 C          5.1862781130       -3.4963603439        0.8233539916
 H          5.1139154917       -4.4186090317        1.4035593317
 H          6.1731595976       -3.4826237645        0.3593800011
 C          5.0765182289       -2.3367031874        1.8151394869
 H          4.0596801881       -2.2896682667        2.2130238306
 H          5.7470446936       -2.5421807495        2.6537546351
 C          5.4431653485       -0.9522468543        1.2658998414
 H          6.4225152147       -0.9944857853        0.7849108203
 H          5.5055732982       -0.2640783063        2.1138824111
 H          3.7251183616       -3.0756776628       -2.3221799124
 H          5.3127569728       -3.7937628029       -2.0210748902
 H          5.3479581812       -1.3643934921       -2.7055752384
 H          6.1937048106       -1.7040411929       -1.1835990513
 O          3.4301024265       -0.1279306137       -1.8070111123
 C          2.4800286223        0.7749360327       -1.3513566137
 O          1.7034823818        1.1630042591       -2.2487109905
 O          3.5279845079        0.9236544035        2.1087749385
 C          1.5126911187        2.1272100639        0.5825498399
 C          0.1716857260        1.4875402473        0.8558981473
 C         -0.3144833716        1.3839757992        2.1540575670
 C         -1.5510619274        0.8133163407        2.3999954784
 C         -2.3245482136        0.3302380200        1.3599069503
 C         -1.8467976504        0.4260598943        0.0592690874
 C         -0.6105530038        1.0075146543       -0.1849867443
 H         -0.2414149033        1.0738197546       -1.1978699796
 N         -2.6088398026       -0.0878574580       -1.0039212112
 S         -4.2257491544        0.3460296961       -1.1129499901
 O         -4.5716316862        0.1827082861       -2.5080170739
 O         -4.4656450608        1.6506994845       -0.5404127451
 C         -5.0656656655       -0.9014847543       -0.1590103860
 C         -5.9422515256       -0.5301340038        0.8415970033
 C         -6.5938911224       -1.5187552857        1.5626569352
 C         -6.3596265476       -2.8536679102        1.2707670370
 C         -5.4779088699       -3.2099479910        0.2609889464
 C         -4.8240454753       -2.2266956599       -0.4640914723
 H         -4.1330169267       -2.4609604950       -1.2567612101
 H         -5.2977005376       -4.2491390037        0.0373804356
 H         -6.8668010618       -3.6214486790        1.8334142150
 H         -7.2795351725       -1.2440238062        2.3480242428
 H         -6.0879585966        0.5202926553        1.0369733678
 H         -2.1512704912       -0.0039713380       -1.9004903345
 H         -3.2877143082       -0.1165487122        1.5450600678
 H         -1.9160070037        0.7407731417        3.4130997171
 H          0.2896284510        1.7461082365        2.9731801797
 H          1.9446195922        2.4180429023        1.5496289524
 C          1.3482199979        3.3775091446       -0.2600221394
 C          0.8356967670        4.6272514842        0.3878610452
 C          2.2695727971        4.5376838967       -0.0392023399
 H          2.5921353649        5.1092079092       -0.8965453804
 H          3.0243504575        4.4368491347        0.7270657172
 H          0.1681172376        5.2616573809       -0.1748956817
 H          0.6183100848        4.5894469664        1.4445444992
 H          1.0403711692        3.1760392487       -1.2779515040
