  62
        -98.94042455
 C         -2.4725105599       -1.1758938499        0.0328338204
 C         -2.4940662295        0.0264702399       -0.7137716900
 C         -3.8264675593        0.5908466402       -0.9755796602
 C         -4.9176712196       -0.0584292194       -0.5298001201
 C         -6.3284850794        0.4313885310       -0.6788627903
 C         -6.7516463092        1.2784539815        0.5295399094
 C         -5.7440243189        2.3651514113        0.9045927691
 H         -6.1606524288        2.9177483517        1.7494306989
 H         -4.8222906991        1.8929576012        1.2523166393
 C         -5.4121462786        3.3421202809       -0.2319199011
 H         -6.1796237785        3.2862523209       -1.0046480712
 H         -5.4249896883        4.3591942910        0.1653272485
 C         -4.0370906286        3.1307682803       -0.8686260910
 H         -3.8168696983        3.9967124500       -1.4986990812
 H         -3.2720063287        3.0915504803       -0.0887917109
 C         -3.8922473189        1.8800778500       -1.7450089406
 H         -2.9404240689        1.9572684095       -2.2791415806
 H         -4.6980517189        1.8502406300       -2.4813301807
 H         -7.7177240691        1.7358847117        0.3089785792
 H         -6.8769086195        0.6162147818        1.3892331496
 H         -6.9870405797       -0.4355561388       -0.7524557201
 H         -6.4096096792        1.0162740408       -1.5928350605
 O         -4.8561364099       -1.2255549492        0.1612435203
 C         -3.6372534701       -1.8060561394        0.4699875505
 O         -3.7209500705       -2.8619648292        1.1294204608
 O         -1.4567828293        0.6019230094       -1.1374007801
 C         -1.1466078301       -1.8345743202        0.3645819107
 C         -0.2328748999       -0.8628862403        1.0713986504
 C         -0.7426201597       -0.0779163998        2.1024856602
 C          0.0631470705        0.8270359302        2.7650953000
 C          1.3955572406        0.9653715997        2.4185638100
 C          1.9217065904        0.1691024292        1.4083877103
 C          1.1091836502       -0.7414396907        0.7465835405
 H          1.5399557200       -1.3403098611       -0.0375397793
 N          3.2871942104        0.2510072687        1.0845438403
 S          3.8100216204       -0.0182762319       -0.4968167095
 O          3.1085716308        0.8437812080       -1.4213601398
 O          3.7607870001       -1.4318708520       -0.7723156891
 C          5.5101299206        0.4987216576       -0.3402070596
 C          6.4178995603       -0.3775302725        0.2241872707
 C          7.7347219104        0.0268177472        0.3745912207
 C          8.1202314408        1.2934041169       -0.0391450297
 C          7.1987147511        2.1610785970       -0.6055979300
 C          5.8795729310        1.7632295974       -0.7575923699
 H          5.1304146912        2.4000785775       -1.2002803002
 H          7.5019259614        3.1437150569       -0.9293285803
 H          9.1460489709        1.6053454667        0.0778261403
 H          8.4548377002       -0.6456455729        0.8120720409
 H          6.0740725200       -1.3541992523        0.5220787310
 H          3.7249801206        1.0779102287        1.4681602301
 H          2.0227920707        1.6802345496        2.9292346898
 H         -0.3507334394        1.4372293305        3.5540715897
 H         -1.7865011498       -0.1800635894        2.3685354201
 H         -1.3781846704       -2.6555345499        1.0600763509
 C         -0.5343871802       -2.4223137608       -0.8905127591
 C          0.3262729194       -3.6460723310       -0.8121256287
 C         -1.0460769206       -3.7318617708       -1.4075972087
 H         -1.1408449406       -3.8632333811       -2.4750494987
 H         -1.8230650008       -4.2180052004       -0.8353608886
 H          1.1829432694       -3.7140107414       -1.4662595786
 H          0.4830869992       -4.0833604307        0.1624932615
 H         -0.2742069700       -1.6630497011       -1.6209397493
