  62
        -98.94245522
 C          1.2011547287        1.1597297018        0.2797926631
 C          1.8968218713        0.3742497127        1.2347637908
 C          2.6595707396       -0.7659100193        0.7112683487
 C          2.6216879102       -1.0288572709       -0.6072259676
 C          3.4204423700       -2.0994462686       -1.2918313844
 C          4.7827600109       -1.5621978114       -1.7542721388
 C          5.5506542991       -0.8026205029       -0.6725355371
 H          5.0068635874        0.1114235272       -0.4229054289
 H          6.5060841343       -0.4980001995       -1.1052062883
 C          5.8036083682       -1.6070490360        0.6102391200
 H          6.8418958638       -1.4621676219        0.9160977660
 H          5.6705371712       -2.6713423397        0.4128445765
 C          4.9283883964       -1.1986543102        1.7965908513
 H          4.9930946357       -0.1175257621        1.9446203948
 H          5.3292992856       -1.6748865120        2.6953577983
 C          3.4473612073       -1.5846895360        1.6945047663
 H          2.9894139193       -1.4035845905        2.6713002621
 H          3.3608216035       -2.6487428770        1.4663172598
 H          4.6206638283       -0.8857259444       -2.5966668827
 H          5.3838023966       -2.4028700549       -2.1057149527
 H          2.8657197727       -2.4417352454       -2.1670268375
 H          3.5629888672       -2.9350210910       -0.6090673049
 O          1.8773859718       -0.3078371930       -1.4793590532
 C          1.1349428822        0.7927785204       -1.0660707678
 O          0.4841267458        1.3250423348       -1.9815437771
 O          1.8800674494        0.6171730408        2.4717010204
 C          0.4359045971        2.3663242434        0.7960171289
 C         -1.0022306182        2.2791391970        0.3580991220
 C         -1.5433036804        3.0643700882       -0.6508567988
 C         -2.8593391452        2.8908218825       -1.0434424552
 C         -3.6647753615        1.9466227308       -0.4320553130
 C         -3.1345388336        1.1640817248        0.5848395158
 C         -1.8128815123        1.3294209430        0.9682691828
 H         -1.3963618341        0.7072637692        1.7512996028
 N         -3.9553568918        0.1994454413        1.2162192236
 S         -4.3507145563       -1.1355022977        0.2867941180
 O         -5.0695449216       -0.6939891677       -0.8794115032
 O         -5.0516249238       -2.0355013933        1.1739087905
 C         -2.7829587065       -1.8457752106       -0.1804446932
 C         -2.2356134733       -2.8304090403        0.6182181647
 C         -0.9917713136       -3.3439969623        0.2907001329
 C         -0.3194739832       -2.8628462251       -0.8223212483
 C         -0.8805046819       -1.8711377795       -1.6118097366
 C         -2.1222442407       -1.3497167115       -1.2858956589
 H         -2.5811133147       -0.5719741013       -1.8748801439
 H         -0.3509572134       -1.4848672596       -2.4683313851
 H          0.6498230055       -3.2618829951       -1.0762202879
 H         -0.5490488613       -4.1142106233        0.9016419074
 H         -2.7979687099       -3.1829586308        1.4681301090
 H         -3.5763680091       -0.1220552738        2.0967762199
 H         -4.6864518049        1.7892777951       -0.7372780879
 H         -3.2637345152        3.4989208392       -1.8383822296
 H         -0.9228282219        3.7916775817       -1.1480576703
 H          0.4618492432        2.2509486601        1.8921663172
 C          1.0783472556        3.7111888538        0.4932247365
 C          2.5699694135        3.8595029959        0.5086712158
 C          1.8150396360        4.0106817102       -0.7761372746
 H          1.7176608389        5.0011167254       -1.1966406577
 H          1.8901959955        3.2307699812       -1.5165330272
 H          2.9989582407        4.7389427802        0.9647903444
 H          3.1549197082        2.9624315243        0.6530874925
 H          0.5090967440        4.5293437562        0.9244706506
