  62
        -98.93617519
 C         -2.1531608866       -0.6187584265        0.2968184633
 C         -2.6584474199        0.4545265909        1.0744681854
 C         -3.4536044345        1.4560362778        0.3558618597
 C         -3.5949997611        1.3601462874       -0.9782432372
 C         -4.3606062753        2.3104617278       -1.8582581210
 C         -5.8667993675        2.0215759954       -1.9226141440
 C         -6.6528136923        2.3771036597       -0.6598098930
 H         -6.4336964758        3.4064401943       -0.3743270415
 H         -7.7124311605        2.3294339666       -0.9186135464
 C         -6.3943443205        1.4441570311        0.5316667804
 H         -7.3461890238        1.1645164715        0.9888590354
 H         -5.9280812748        0.5218055164        0.1769680728
 C         -5.5232532021        2.0486131829        1.6331985558
 H         -6.0422162218        2.8958354635        2.0868020103
 H         -5.3753882421        1.2913781605        2.4077479535
 C         -4.1415820136        2.5182536067        1.1589510548
 H         -3.5266385468        2.7207496494        2.0392568719
 H         -4.2348966731        3.4353364102        0.5778352523
 H         -6.2743002005        2.6020446196       -2.7535237858
 H         -6.0099949182        0.9637332778       -2.1552777055
 H         -4.1993805868        3.3346457384       -1.5207070836
 H         -3.9463389600        2.2053286352       -2.8632590353
 O         -3.0180578158        0.3659239239       -1.7022486706
 C         -2.3042163920       -0.6596087384       -1.0905453580
 O         -1.8665850891       -1.5079834583       -1.8882407649
 O         -2.4499197360        0.5722255404        2.3117579239
 C         -1.3772251202       -1.7027208955        1.0228588565
 C         -0.0818818687       -1.9960308729        0.3090132731
 C          0.2110946334       -3.2189103059       -0.2781415588
 C          1.4222366069       -3.4139665189       -0.9190317736
 C          2.3624235437       -2.4032335080       -0.9876714334
 C          2.0817380516       -1.1759183214       -0.4003270561
 C          0.8707083539       -0.9855928253        0.2480011922
 H          0.6483642753       -0.0285800420        0.7052121179
 N          3.0245731674       -0.1307135915       -0.4788821791
 S          4.6270867684       -0.5247805504       -0.1106242221
 O          5.2178066152       -1.1661645078       -1.2579216365
 O          4.6818872815       -1.2708828795        1.1273153066
 C          5.3402217584        1.0934310586        0.1057978644
 C          5.4645462546        1.6149828817        1.3794626921
 C          6.0046895348        2.8820110090        1.5347567381
 C          6.4056243875        3.6026894042        0.4198518581
 C          6.2740284839        3.0656279976       -0.8522527442
 C          5.7362302423        1.7988846728       -1.0145905975
 H          5.6237824216        1.3371552369       -1.9815795079
 H          6.5892550996        3.6283621519       -1.7160641060
 H          6.8263214399        4.5880514692        0.5437970022
 H          6.1112246786        3.3007972585        2.5225192379
 H          5.1485337402        1.0154474420        2.2182544482
 H          2.7311865634        0.6779922776        0.0529075810
 H          3.3090300763       -2.5477580557       -1.4826783883
 H          1.6360177651       -4.3678389780       -1.3777122880
 H         -0.5170984139       -4.0127619570       -0.2545698234
 H         -1.1271223841       -1.2491275153        1.9970432113
 C         -2.1916858399       -2.9506804093        1.3296539018
 C         -3.6677601530       -2.8626693893        1.5744391300
 C         -3.1514339153       -3.5521721661        0.3490906744
 H         -3.2234082418       -4.6289946325        0.2998513416
 H         -3.2636234203       -3.0647462367       -0.6065292804
 H         -4.0948042002       -3.4625860658        2.3639531191
 H         -4.1364784722       -1.8961325574        1.4583897911
 H         -1.6415651956       -3.6442368192        1.9586214727
