  62
        -98.94068403
 C          1.7555364451        0.5282821616       -0.3894003359
 C          2.9543694412        0.7234644554       -1.1214204989
 C          4.2046263528        0.6430274194       -0.3550727420
 C          4.1466291915        0.4478215444        0.9746887442
 C          5.3399124425        0.2917824953        1.8711935066
 C          5.7450772051       -1.1829880210        2.0048807548
 C          5.8610874430       -1.9162520886        0.6685020091
 H          6.1799950570       -2.9380855109        0.8849819471
 H          4.8718411435       -1.9795144009        0.2093998124
 C          6.8400993422       -1.2751635678       -0.3250455156
 H          7.5127394473       -0.5977552256        0.2022865381
 H          7.4544772020       -2.0615821435       -0.7685155890
 C          6.1726036948       -0.5269486005       -1.4805280061
 H          5.4303189630       -1.1733237744       -1.9559504831
 H          6.9378420766       -0.3039900181       -2.2288206867
 C          5.4933068478        0.7981064111       -1.1123080363
 H          6.1924458700        1.4285803477       -0.5590553491
 H          5.2331565205        1.3090417054       -2.0441307984
 H          6.6992996377       -1.2319660015        2.5325601011
 H          4.9943270223       -1.6943858524        2.6116724757
 H          6.1682182036        0.8720956515        1.4691210181
 H          5.0814411779        0.6795257482        2.8579746391
 O          2.9781667026        0.3269378945        1.6522963548
 C          1.7530867335        0.3582081869        0.9961860663
 O          0.7744073817        0.2317365040        1.7538410060
 H         -2.1099982132        0.0369484281       -0.2536458996
 C         -1.8014136730        1.0519852009       -0.0705951332
 C         -0.5402441565        1.4807637833       -0.4492603347
 C         -0.1732165557        2.7956573227       -0.1706976436
 C         -1.0390433929        3.6484191091        0.4836055012
 C         -2.3027388801        3.2180209781        0.8506367254
 C         -2.6831817318        1.9136246314        0.5676686529
 N         -3.9544220138        1.4363227978        0.9234050302
 S         -4.8128512127        0.5263993476       -0.1882073931
 O         -4.5108157365        0.9240649906       -1.5439459975
 O         -6.1962446888        0.6592568070        0.2179468859
 C         -4.2972115850       -1.1549493109        0.0857450792
 C         -4.2270517216       -1.6270864270        1.3812194880
 C         -3.8664470106       -2.9481220965        1.5924770462
 C         -3.5909956511       -3.7721774050        0.5117539795
 C         -3.6693912984       -3.2836153070       -0.7835799740
 C         -4.0265110203       -1.9621142688       -1.0013598251
 H         -4.0903240801       -1.5378183969       -1.9908581467
 H         -3.4526390371       -3.9249979344       -1.6232331614
 H         -3.3098328024       -4.8000169444        0.6793225037
 H         -3.8002162454       -3.3309886147        2.5981007885
 H         -4.4477758339       -0.9588901798        2.1966348167
 H         -4.5454597885        2.1092529258        1.3895127856
 H         -2.9847469096        3.8849418452        1.3564039928
 H         -0.7342893750        4.6610156433        0.7024253931
 H          0.8106768274        3.1361335170       -0.4651747413
 C          0.4475812886        0.5884747638       -1.1569716565
 H          0.7140868522        1.0776808317       -2.1098143592
 C         -0.1252129572       -0.7745513164       -1.5165466935
 C          0.7657172048       -1.9682616779       -1.6818675919
 C         -0.1872521627       -1.8993459939       -0.5283941176
 H         -1.0551914053       -2.5421947148       -0.5387417291
 H          0.2069258883       -1.7155989347        0.4583709004
 H          1.8197126076       -1.8362803146       -1.4844495892
 H          0.5555080683       -2.6569472422       -2.4861942166
 H         -0.9530922018       -0.6928677390       -2.2152593469
 O          2.9759221090        0.9600672632       -2.3591938832
