  62
        -98.94273886
 C         -1.9851579984       -1.4596765914       -0.0696399245
 C         -1.7012901674       -0.1319061502       -0.4702744220
 C         -2.8691748621        0.7196375546       -0.7454471005
 C         -4.1070652537        0.2131329345       -0.6070211881
 C         -5.3781008545        0.9877200175       -0.7972301854
 C         -5.8464349169        1.6156892544        0.5232834476
 C         -4.7488667412        2.3706332265        1.2736304662
 H         -5.2026656065        2.7919718748        2.1733274123
 H         -3.9871148735        1.6595206093        1.6015561712
 C         -4.0806846325        3.4916012029        0.4651863776
 H         -4.7126857039        3.7642665348       -0.3808465719
 H         -3.9913811733        4.3750522956        1.1008360523
 C         -2.6744471035        3.1610018553       -0.0387916759
 H         -2.2201203229        4.0862673705       -0.4031234023
 H         -2.0630263489        2.7982378042        0.7914540850
 C         -2.6012677589        2.1343583626       -1.1760985503
 H         -1.5796465727        2.1397933956       -1.5675615835
 H         -3.2779051074        2.4273584951       -1.9813790526
 H         -6.6752245922        2.2927526775        0.3084115637
 H         -6.2184473192        0.8191540976        1.1720275887
 H         -6.1482188259        0.3033835702       -1.1572550513
 H         -5.2175390335        1.7628740378       -1.5440513398
 O         -4.3419520251       -1.0662052390       -0.2172441161
 C         -3.2948136875       -1.9237297248        0.0789104852
 O         -3.6528453191       -3.0542079460        0.4647915602
 O         -0.5401715725        0.3341863174       -0.5926001902
 C         -0.8754091829       -2.4399771209        0.2684724148
 C          0.1766770752       -1.7649381632        1.1154169063
 C         -0.2055188012       -1.2195742874        2.3393517684
 C          0.7171364476       -0.5949061265        3.1546518005
 C          2.0434896352       -0.5036699166        2.7692087153
 C          2.4382548578       -1.0502978520        1.5544646791
 C          1.5074770792       -1.6814346978        0.7380820102
 H          1.8382658785       -2.0742022703       -0.2081986599
 N          3.7882771454       -1.0099091811        1.1645437329
 S          4.2762199288       -0.4871104589       -0.3471385116
 O          3.6383669799       -1.2706810584       -1.3725174252
 O          5.7211759862       -0.5561537558       -0.2995636368
 C          3.7785564704        1.2239709216       -0.4417869566
 C          4.7522300819        2.1991571495       -0.3358988580
 C          4.3762802531        3.5318989368       -0.3651360795
 C          3.0359848715        3.8667135630       -0.4883766924
 C          2.0725471330        2.8754482667       -0.5872837244
 C          2.4402862623        1.5384895109       -0.5664355249
 H          1.6957373286        0.7623855139       -0.6419172233
 H          1.0265694640        3.1224234448       -0.6775352797
 H          2.7404100042        4.9040245741       -0.5074156754
 H          5.1260659454        4.3030397941       -0.2895083041
 H          5.7811113987        1.8914977777       -0.2406051041
 H          4.4035114012       -0.6209727910        1.8651335841
 H          2.7670769515       -0.0159622985        3.4048654209
 H          0.4030753015       -0.1722062255        4.0972441684
 H         -1.2433374414       -1.2881821437        2.6382223104
 H         -1.3574375750       -3.2138041131        0.8896340559
 C         -0.2938894079       -3.1563817975       -0.9412843389
 C         -1.1125210384       -3.4043521768       -2.1720945658
 C          0.0321203615       -2.4393038928       -2.2152700231
 H          0.9323107155       -2.7175660398       -2.7443203908
 H         -0.1857951654       -1.3843844802       -2.2641567827
 H         -1.0072812454       -4.3549292213       -2.6731272678
 H         -2.1176224691       -3.0081895724       -2.1954679448
 H          0.3812839358       -3.9561725691       -0.6507580914
