  62
        -98.93312013
 C         -2.3875266058       -1.2608754036        0.0381963465
 C         -2.4533197321        0.0137522376       -0.5723713970
 C         -3.8034774987        0.5736965630       -0.7491214218
 C         -4.8698417884       -0.1442708154       -0.3513598622
 C         -6.2986359629        0.3185479731       -0.3930171354
 C         -6.5711407859        1.2918138647        0.7717503878
 C         -6.8947242867        2.7209437668        0.3359257441
 H         -7.9182328727        2.7531675009       -0.0431871339
 H         -6.8528047074        3.3517823149        1.2263242546
 C         -5.9786897008        3.3141912770       -0.7388858729
 H         -6.2737868241        2.9404006927       -1.7204170516
 H         -6.1572283208        4.3914858039       -0.7497883139
 C         -4.4760378170        3.0668045823       -0.5519365870
 H         -3.9430755734        3.9749602000       -0.8410373755
 H         -4.2422983374        2.8831703113        0.4970052092
 C         -3.9030383979        1.9216900890       -1.4081466604
 H         -4.4782277144        1.8344999552       -2.3342535430
 H         -2.8740310846        2.1724457412       -1.6835690457
 H         -7.4044335388        0.9195867809        1.3695020477
 H         -5.6951089615        1.2985256313        1.4236788564
 H         -6.5020065398        0.7972534000       -1.3482124374
 H         -6.9286917101       -0.5665322209       -0.3039604280
 O         -4.7637470213       -1.3721905361        0.2207389251
 C         -3.5277538888       -1.9591847947        0.4331309105
 O         -3.5754668338       -3.0813012924        0.9762254380
 O         -1.4367416502        0.6546926313       -0.9506057015
 C         -1.0412394845       -1.9246217253        0.2596710763
 C         -0.1255392553       -1.0219152495        1.0503387969
 C         -0.6177253210       -0.3801318454        2.1839641209
 C          0.1912395527        0.4552285032        2.9288643685
 C          1.5087370790        0.6663151496        2.5623865464
 C          2.0175866317        0.0129841624        1.4464404030
 C          1.2025031480       -0.8298638068        0.7029428698
 H          1.6195975392       -1.3188912982       -0.1605782392
 N          3.3702370438        0.1666862132        1.0939824123
 S          3.8390056223        0.1634745353       -0.5271465069
 O          3.1177913908        1.1738702434       -1.2684919733
 O          3.7659140827       -1.1823704100       -1.0361379221
 C          5.5490150231        0.6372602918       -0.3426111739
 C          5.9197358796        1.9527262357       -0.5470796053
 C          7.2479654538        2.3098971106       -0.3745240199
 C          8.1773200361        1.3514429951        0.0004022752
 C          7.7905319689        0.0345378028        0.2008221487
 C          6.4646731692       -0.3293189210        0.0283085544
 H          6.1194595220       -1.3409900238        0.1630475989
 H          8.5165292252       -0.7084858617        0.4890587614
 H          9.2101234374        1.6319938743        0.1341860894
 H          7.5521933776        3.3318957649       -0.5336523209
 H          5.1644806726        2.6616231236       -0.8468241729
 H          3.8088266820        0.9352183310        1.5837979554
 H          2.1377304446        1.3279056161        3.1385780465
 H         -0.2085756905        0.9540660095        3.7991509978
 H         -1.6505078344       -0.5378494782        2.4655210309
 H         -1.2398340164       -2.8237340648        0.8624950799
 C         -0.4539621339       -2.3534056361       -1.0694767299
 C          0.4298945895       -3.5600968517       -1.1535537380
 C         -0.9569837779       -3.6060716491       -1.7190290511
 H         -1.0795571811       -3.6172603183       -2.7916869189
 H         -1.7090162469       -4.1699113641       -1.1860649104
 H          1.2685188907       -3.5352619836       -1.8335531599
 H          0.6215354454       -4.1021452052       -0.2397210375
 H         -0.2280654849       -1.5110649314       -1.7152520214
