  62
        -98.94337210
 C         -2.0158519044       -0.7964782412        0.5186990291
 C         -2.0559561731       -0.0861188713       -0.7053447348
 C         -2.1794114475        1.3732362855       -0.5950302029
 C         -2.2054705929        1.9421999748        0.6237582442
 C         -2.3493878157        3.4140588314        0.8804187969
 C         -3.8234146454        3.8174423865        1.0257860947
 C         -4.7206958854        3.2885072480       -0.0929582933
 H         -4.7593101546        2.1986599182       -0.0312072008
 H         -5.7302607867        3.6586617499        0.0976076664
 C         -4.2820863963        3.6999871150       -1.5051461114
 H         -5.1611656234        4.0284332743       -2.0634157169
 H         -3.5980715849        4.5473239037       -1.4480141594
 C         -3.6314463564        2.5789722532       -2.3175622153
 H         -3.5591614911        2.9098312308       -3.3569338898
 H         -4.2719604788        1.6938536883       -2.2989894684
 C         -2.2235266983        2.1625519530       -1.8731100629
 H         -1.8110519968        1.5023098868       -2.6419004474
 H         -1.5814359708        3.0430276324       -1.7999292733
 H         -4.1952113615        3.4290667825        1.9767644691
 H         -3.8806127997        4.9069731967        1.0574891915
 H         -1.8204143841        3.6516844540        1.8051843940
 H         -1.8877633520        3.9629376319        0.0617442429
 O         -2.1476681259        1.2285038609        1.7782556686
 C         -2.0391778841       -0.1520038759        1.7534746128
 O         -1.9776180420       -0.6846982827        2.8828095464
 H          0.4537620001       -0.9015684790        0.5376196888
 C          0.5519386836       -1.7933034198       -0.0644164107
 C         -0.5326233384       -2.6502568014       -0.1997980679
 C         -0.3744260291       -3.8028616367       -0.9587071674
 C          0.8361851277       -4.0733159677       -1.5739972121
 C          1.9041890500       -3.2037517354       -1.4572090214
 C          1.7540589488       -2.0437686834       -0.7029428103
 N          2.7988625662       -1.1085833361       -0.6210660930
 S          2.7839993856        0.1281854424        0.5157214796
 O          2.7467196190       -0.4130479741        1.8582252031
 O          1.7520319288        1.0750938686        0.1733033620
 C          4.3839134988        0.8462714661        0.1938892111
 C          5.4556390462        0.5253372243        1.0050789401
 C          6.6971843617        1.0746802185        0.7246663995
 C          6.8455942071        1.9289028221       -0.3575041076
 C          5.7602113505        2.2431595283       -1.1621086511
 C          4.5163528057        1.6982361887       -0.8864445971
 H          3.6415345524        1.9198889936       -1.4755759391
 H          5.8778720605        2.9100081970       -2.0009509927
 H          7.8123687292        2.3552550035       -0.5736742344
 H          7.5415793061        0.8351650747        1.3505812415
 H          5.2897824214       -0.1355942625        1.8405820442
 H          3.7179331074       -1.5060923088       -0.7524066477
 H          2.8411816880       -3.4089677597       -1.9511437105
 H          0.9470350343       -4.9737932828       -2.1588534977
 H         -1.1995826243       -4.4873426159       -1.0701883229
 C         -1.8217751941       -2.3007311411        0.5079435909
 H         -1.7232881190       -2.6032787043        1.5620950353
 C         -3.0325604758       -2.9897239103       -0.0892499489
 C         -3.4696477150       -4.3324619863        0.4119888840
 C         -4.2743816994       -3.1120169561        0.7401576302
 H         -5.2316302247       -2.9768296216        0.2596508355
 H         -4.2332466520       -2.7256279505        1.7486473021
 H         -3.8795911741       -5.0380164181       -0.2949141492
 H         -2.8924185993       -4.7831886109        1.2053106480
 H         -3.1535140369       -2.7692935080       -1.1435681004
 O         -1.9868888370       -0.6425284227       -1.8330061330
