  62
        -98.93825576
 C         -2.2006653885       -0.9480370710        0.7594419456
 C         -2.0241910493       -0.1698009966       -0.4124303642
 C         -2.4937653378        1.2228013680       -0.3338451235
 C         -3.0065497293        1.6874780394        0.8191124262
 C         -3.5723088172        3.0630815674        1.0171532189
 C         -5.0763043403        3.0963356954        0.7103647121
 C         -5.4503350883        2.4512896978       -0.6240851382
 H         -5.2390393864        1.3807139988       -0.5747880522
 H         -6.5298981643        2.5606712541       -0.7466569407
 C         -4.7340977482        3.0509791141       -1.8421751088
 H         -4.3251251656        4.0294248003       -1.5878004153
 H         -5.4644912559        3.2014942633       -2.6397329887
 C         -3.6212398397        2.1732180819       -2.4181789316
 H         -4.0026068261        1.1636982391       -2.5914816836
 H         -3.3301846536        2.5835365103       -3.3887425996
 C         -2.3488365948        2.0679632148       -1.5677222075
 H         -1.5771917746        1.5822265235       -2.1734966507
 H         -1.9932493444        3.0676769597       -1.3079993527
 H         -5.4059449997        4.1367109455        0.7186351486
 H         -5.6032178396        2.5659334561        1.5068733486
 H         -3.4153693087        3.3522491995        2.0577625550
 H         -3.0421655837        3.7621963713        0.3730093930
 O         -3.1055986345        0.9286350177        1.9407494179
 C         -2.6971691605       -0.3954997724        1.9421216244
 O         -2.8135621672       -0.9641578483        3.0465281285
 H          0.3748320487       -0.9785699600        1.5223202127
 C          0.6233836007       -1.6644495747        0.7193596669
 C         -0.3637277536       -2.5066270158        0.2214735295
 C         -0.0321274889       -3.3702422651       -0.8132025994
 C          1.2466892050       -3.3704664895       -1.3441603608
 C          2.2179205763       -2.5135237885       -0.8606557130
 C          1.8970558992       -1.6512074283        0.1780709283
 N          2.8810321907       -0.7504456227        0.6603121012
 S          3.1676914502        0.5869275414       -0.3386383412
 O          2.3513316248        1.6992782065        0.1062862604
 O          3.0362582824        0.1901563515       -1.7160265568
 C          4.8801438691        0.9188660110        0.0296295208
 C          5.8364927898        0.0900678435       -0.5241246883
 C          7.1707592367        0.3111369771       -0.2242501650
 C          7.5247567967        1.3513521079        0.6223861700
 C          6.5536175940        2.1746976997        1.1709169469
 C          5.2167020924        1.9572727896        0.8751223624
 H          4.4286037208        2.5757727395        1.2735737468
 H          6.8312671143        2.9837190853        1.8273161116
 H          8.5640405400        1.5224131935        0.8546008642
 H          7.9286762274       -0.3263781986       -0.6500836957
 H          5.5150073695       -0.6995100873       -1.1827904800
 H          2.6269444061       -0.3840644946        1.5692098106
 H          3.2060583599       -2.4850655788       -1.2889317022
 H          1.4849944635       -4.0400694926       -2.1566795290
 H         -0.7836429358       -4.0211407693       -1.2291359548
 C         -1.7410069799       -2.3957481722        0.8292952568
 H         -1.6513308375       -2.6123993466        1.9071112541
 C         -2.7377952982       -3.3982903597        0.2680997455
 C         -4.2053009372       -3.0936356483        0.2430654495
 C         -3.4369325979       -3.1840259692       -1.0393143052
 H         -3.6053407292       -4.0400096191       -1.6763797903
 H         -3.2177305834       -2.2758925106       -1.5778949360
 H         -4.5194653898       -2.1183021259        0.5862110305
 H         -4.8970858806       -3.8854901068        0.4880716052
 H         -2.4661787379       -4.4199614238        0.5147268430
 O         -1.5055638420       -0.6025011326       -1.4739214337
