  62
        -98.94367352
 C         -2.6266572667       -0.1515864777       -0.2259749212
 C         -2.1726529936       -0.9419310195        0.8592573982
 C         -1.7321182841       -2.3056888837        0.5209056620
 C         -1.7480473183       -2.7134803804       -0.7597091633
 C         -1.2876298997       -4.0579062196       -1.2436663896
 C          0.1943230863       -4.0394989047       -1.6399909142
 C          1.1157223305       -3.4298347214       -0.5826264199
 H          2.1398310565       -3.5283495136       -0.9513730423
 H          0.9148812089       -2.3585129764       -0.5001738560
 C          1.0096255739       -4.0763713591        0.8053033025
 H          0.5488434748       -5.0621379068        0.7215970724
 H          2.0179729266       -4.2192607271        1.1996138330
 C          0.2468216193       -3.2426283284        1.8368086657
 H          0.6368232810       -2.2212990295        1.8401593134
 H          0.4372483554       -3.6686519983        2.8261897458
 C         -1.2751556960       -3.1819937622        1.6532019258
 H         -1.6737946615       -4.1931934992        1.5405948548
 H         -1.6998776602       -2.7427745246        2.5608554116
 H          0.5061660315       -5.0652425913       -1.8478470762
 H          0.3003553161       -3.4561198796       -2.5575426175
 H         -1.4553307076       -4.7946039325       -0.4601119550
 H         -1.8835800936       -4.3274029979       -2.1177067591
 O         -2.1734175292       -1.9232763494       -1.7787576311
 C         -2.6007703605       -0.6304859012       -1.5384463349
 O         -2.9533307887       -0.0115184519       -2.5647715072
 H         -0.5098029004        0.9562392293        0.7581568041
 C         -0.6487786086        1.8831840417        0.2235707845
 C         -1.9000489962        2.2314262875       -0.2587093477
 C         -2.0428177626        3.4475526799       -0.9180650036
 C         -0.9534261429        4.2787283272       -1.1062709528
 C          0.3048030439        3.8998131118       -0.6730971771
 C          0.4555918645        2.6896716359       -0.0069789857
 N          1.7121706715        2.2468507173        0.4375043156
 S          2.0166469911        0.5873947740        0.2802335611
 O          1.4085230492        0.0895205817       -0.9324708534
 O          1.6505811175       -0.0664404616        1.5099073339
 C          3.7931056395        0.5924244530        0.1209369683
 C          4.3546875133        0.6116924427       -1.1416969211
 C          5.7350442557        0.6517219889       -1.2611395888
 C          6.5256899734        0.6750444972       -0.1219052850
 C          5.9475816389        0.6537722297        1.1387088879
 C          4.5680374890        0.6125171670        1.2651244765
 H          4.0725302777        0.5849934474        2.2216314186
 H          6.5653081293        0.6683713648        2.0220247423
 H          7.5994655601        0.7068489739       -0.2175179069
 H          6.1868111676        0.6641480159       -2.2399238528
 H          3.6991924108        0.5824842482       -1.9975783894
 H          2.4768288500        2.8060209174        0.0840947807
 H          1.1625940011        4.5303252456       -0.8515919376
 H         -1.0789280968        5.2194029464       -1.6204712303
 H         -3.0113806262        3.7296562178       -1.3025137322
 C         -3.0756993401        1.2944947909       -0.0920953753
 H         -3.7586649832        1.4761750313       -0.9350489845
 C         -3.8162177640        1.6025289079        1.1945502298
 C         -4.8537403191        2.6831622098        1.2087598753
 C         -5.2664463644        1.2462229219        1.3115129693
 H         -5.6273923435        0.8724637848        2.2575043938
 H         -5.7360975492        0.7873779682        0.4533348579
 H         -4.9330100838        3.3049488938        2.0870338576
 H         -5.0582063102        3.1993741217        0.2832790985
 H         -3.2032767222        1.4791047412        2.0777671947
 O         -2.1361932016       -0.5581157438        2.0588830692
