  62
        -98.94110672
 C         -1.9077111725       -0.9245532794        0.2618194878
 C         -2.3015432012        0.0760051607        1.1844677692
 C         -2.5012913418        1.4242463217        0.6396487761
 C         -2.2473068457        1.6482357944       -0.6622411932
 C         -2.4344524733        2.9647180974       -1.3586980230
 C         -3.8434762681        3.0872258562       -1.9556840781
 C         -4.9613741562        2.7322045066       -0.9753449632
 H         -4.8930875635        1.6702880824       -0.7284576774
 H         -5.9098894317        2.8816089149       -1.4953654864
 C         -4.9531366769        3.5542113638        0.3210118813
 H         -5.9735809454        3.8761935997        0.5383440898
 H         -4.3506210307        4.4529998215        0.1857627161
 C         -4.4551291275        2.7929725222        1.5510466196
 H         -4.9915556153        1.8447108488        1.6378693354
 H         -4.6928720828        3.3859057421        2.4381005953
 C         -2.9498630186        2.4990125034        1.5897852772
 H         -2.7057956658        2.1315551413        2.5911566332
 H         -2.3881211529        3.4202131453        1.4192274349
 H         -3.9140550499        2.4158836058       -2.8145152618
 H         -3.9792549029        4.1102399752       -2.3109760262
 H         -1.6972702208        3.0317699035       -2.1607925551
 H         -2.2558592652        3.7704476582       -0.6489049414
 O         -1.8293175529        0.6764945054       -1.5103000803
 C         -1.6302140531       -0.6254268166       -1.0739209282
 O         -1.2269809652       -1.3970629981       -1.9643760914
 O         -2.4731074375       -0.1496150761        2.4142125523
 C         -1.6294847843       -2.3153579414        0.8067314178
 C         -0.2639607181       -2.7575333197        0.3429796741
 C         -0.0079162326       -3.9556649360       -0.3088632106
 C          1.2723737667       -4.2517612008       -0.7453216457
 C          2.3114024601       -3.3598372082       -0.5590808818
 C          2.0663082709       -2.1618193913        0.1042394826
 C          0.7939438249       -1.8852999643        0.5707628132
 H          0.6124280584       -0.9498136979        1.0822107263
 N          3.0991500665       -1.2323674782        0.3263591609
 S          2.7026235750        0.4093756161        0.3259991329
 O          2.2098762959        0.7639218595        1.6350216477
 O          1.8452023867        0.7317057795       -0.7924025349
 C          4.3213482809        1.1206933177        0.0898754564
 C          4.7142307637        1.5045445484       -1.1782765272
 C          5.9859432145        2.0263624767       -1.3572158561
 C          6.8395682297        2.1510838788       -0.2714246365
 C          6.4309068491        1.7619411500        0.9957162559
 C          5.1603827356        1.2406927957        1.1817183153
 H          4.7938566541        0.9332843965        2.1471608132
 H          7.0961113637        1.8630595015        1.8379254523
 H          7.8285901609        2.5569731093       -0.4135271600
 H          6.3044210395        2.3324210889       -2.3406629232
 H          4.0120881480        1.3954488853       -1.9895911824
 H          3.9142937728       -1.4134683614       -0.2440420490
 H          3.3016837458       -3.5811620104       -0.9271578286
 H          1.4579394045       -5.1828550386       -1.2591765650
 H         -0.8134295995       -4.6445257505       -0.5030965122
 H         -1.5826796088       -2.1705506063        1.9002021447
 C         -2.7273000520       -3.3366222470        0.5529731618
 C         -4.1411485809       -2.9041884758        0.3070369357
 C         -3.3467580480       -3.5303947217       -0.7974763234
 H         -3.6022132006       -4.5345122442       -1.1031822999
 H         -2.9936893549       -2.9031294408       -1.6004388638
 H         -4.9387423354       -3.4744155732        0.7591645775
 H         -4.3356622165       -1.8424374276        0.2572325047
 H         -2.5998510240       -4.2267460759        1.1615782646
