  62
        -98.94757797
 C         -2.5320083762       -0.2779648316        0.0075740975
 C         -2.2283849048       -1.2908260259       -0.9318543165
 C         -1.6008302106       -2.5037679245       -0.3936487781
 C         -1.3712385412       -2.5927222357        0.9290945107
 C         -0.7358854832       -3.7691435690        1.6125360489
 C          0.7822058895       -3.5990304874        1.7498032636
 C          1.4887263072       -3.2158819239        0.4491963578
 H          1.2074507471       -2.1955965778        0.1770756063
 H          2.5614127631       -3.1985053046        0.6582473797
 C          1.2159524802       -4.1529425365       -0.7350993956
 H          0.8464642844       -5.1135914659       -0.3731337330
 H          2.1593789689       -4.3390342908       -1.2524239624
 C          0.2445012550       -3.5893954647       -1.7744456747
 H          0.5386461322       -2.5656317258       -2.0237470108
 H          0.3322084603       -4.1889979059       -2.6848178136
 C         -1.2358474621       -3.5858504537       -1.3700814916
 H         -1.8278086457       -3.3883217387       -2.2687694926
 H         -1.5153845937       -4.5684608571       -0.9832083995
 H          0.9773014395       -2.8099038024        2.4797166081
 H          1.1984705248       -4.5336503452        2.1318118444
 H         -0.9609632091       -4.6718496971        1.0472783977
 H         -1.1714033919       -3.8570681478        2.6097950450
 O         -1.6895158674       -1.6051141621        1.8043678126
 C         -2.2277418501       -0.4068434072        1.3627401260
 O         -2.4122657394        0.4361119815        2.2624122407
 O         -2.4786875701       -1.1860499197       -2.1649160270
 C         -3.0845782522        1.0461302242       -0.4921167849
 C         -2.0563700716        2.1207156575       -0.2325445402
 C         -2.3449759016        3.3644271824        0.3129785163
 C         -1.3252852944        4.2651333053        0.5726559099
 C         -0.0052173217        3.9409025419        0.3183085349
 C          0.2902868970        2.7050206414       -0.2461691954
 C         -0.7354566577        1.8254549573       -0.5427833398
 H         -0.4940406074        0.8708348816       -0.9872560591
 N          1.6134094878        2.3158245391       -0.5275987438
 S          1.9748420729        0.6831225897       -0.2525290287
 O          1.6317429178       -0.0698360857       -1.4332231657
 O          1.3848865411        0.2487097967        0.9925268352
 C          3.7499112034        0.7649555678       -0.1031231256
 C          4.5078837834        0.8503669464       -1.2557961719
 C          5.8858158124        0.9478888197       -1.1453042391
 C          6.4794093019        0.9582251194        0.1083744302
 C          5.7059253395        0.8690355383        1.2559402542
 C          4.3268156142        0.7733332959        1.1524255621
 H          3.6839285447        0.6940243628        2.0146767700
 H          6.1697371462        0.8732728941        2.2291481813
 H          7.5520513163        1.0333804178        0.1917093339
 H          6.4904063457        1.0145003601       -2.0352918123
 H          4.0014598885        0.8282114787       -2.2066057977
 H          2.2978671566        2.9219952128       -0.0951569909
 H          0.7890384332        4.6325399319        0.5550005946
 H         -1.5614467512        5.2266095724        1.0030421735
 H         -3.3642246535        3.6226486669        0.5498055828
 H         -3.1912658834        0.9261622191       -1.5811593974
 C         -4.4428542724        1.3427990188        0.1047204863
 C         -5.4306386156        2.1802227458       -0.6501084500
 C         -5.6555141461        0.7062730148       -0.5032952092
 H         -6.4413780957        0.3645102635        0.1531811071
 H         -5.5021540352        0.0749076651       -1.3664362564
 H         -6.0676950682        2.8517318208       -0.0946557594
 H         -5.1326915292        2.5520007468       -1.6187947377
 H         -4.4110351844        1.4307785876        1.1847032619
