  62
        -98.93874381
 C         -2.5499176302       -0.1232163324        0.4973032829
 C         -2.4241465502        0.6147482444       -0.7016679944
 C         -2.0739710100        2.0400271002       -0.5665569774
 C         -1.8525421717        2.5518333427        0.6582757093
 C         -1.4727315746        3.9478124676        1.1069690312
 C         -1.0509260276        5.0050071498        0.0909213141
 C          0.3056526253        4.7516648695       -0.5672926571
 H          1.0859591290        4.9106915625        0.1813155159
 H          0.4446814529        5.4928541106       -1.3577101082
 C          0.5172666970        3.3572641284       -1.1529210258
 H          0.4752395919        2.6045754521       -0.3621192303
 H          1.5307762539        3.3226572219       -1.5631069138
 C         -0.4435189164        2.9627338341       -2.2721511266
 H         -0.1046259510        2.0021291950       -2.6702675051
 H         -0.3939198244        3.6992318074       -3.0773854751
 C         -1.9129024303        2.7948734136       -1.8551714821
 H         -2.4121957327        2.1948339950       -2.6219558208
 H         -2.4217895220        3.7544043920       -1.8062063948
 H         -0.9788809512        5.9497453902        0.6369272502
 H         -1.8258247837        5.1337352454       -0.6589955109
 H         -0.6690357877        3.8130155624        1.8385789060
 H         -2.3372667820        4.3248049475        1.6648747389
 O         -1.9987798474        1.8000396836        1.7908377217
 C         -2.3193021270        0.4567309914        1.7413637197
 O         -2.3761100440       -0.1025072157        2.8581046786
 O         -2.5956380827        0.1094605512       -1.8424400031
 C         -2.7935615661       -1.6198606950        0.4398728523
 C         -1.6647211376       -2.2728109538       -0.3249786234
 C         -1.8420000561       -3.3327983674       -1.2039923133
 C         -0.7563384333       -3.8684823966       -1.8769271965
 C          0.5162024165       -3.3588802059       -1.6984858968
 C          0.7035455579       -2.2955918517       -0.8200857901
 C         -0.3794537292       -1.7848658046       -0.1270115254
 H         -0.2222829555       -0.9749824649        0.5700863344
 N          1.9699026250       -1.7079230085       -0.6647502431
 S          2.3224998448       -0.7493992066        0.6724102433
 O          2.1452792803       -1.5066486257        1.8937343375
 O          1.6027104560        0.4947567224        0.5751839149
 C          4.0567084565       -0.4597864407        0.3790727740
 C          4.9997118290       -1.2441454063        1.0156293517
 C          6.3428551167       -1.0233783777        0.7531740882
 C          6.7176535480       -0.0293749877       -0.1381575824
 C          5.7596859317        0.7513812492       -0.7681618959
 C          4.4154786163        0.5362131086       -0.5093286570
 H          3.6341088301        1.1215153366       -0.9660482694
 H          6.0544625627        1.5258018960       -1.4577563200
 H          7.7632365890        0.1405345309       -0.3407854191
 H          7.0898597048       -1.6257569098        1.2443702967
 H          4.6611632432       -1.9980652743        1.7080592135
 H          2.7354851770       -2.3203479119       -0.9083259194
 H          1.3558583496       -3.7671533030       -2.2394226935
 H         -0.9061359367       -4.6926978507       -2.5578003693
 H         -2.8286933580       -3.7349651782       -1.3666201489
 H         -2.7512250197       -1.9758294449        1.4809437445
 C         -4.1626514345       -1.9271966267       -0.1297203216
 C         -4.9154840316       -3.1421578198        0.3202428425
 C         -5.3621419695       -1.7799176812        0.7558085652
 H         -6.2679137816       -1.3713492539        0.3339553286
 H         -5.1854603417       -1.4847335336        1.7803239313
 H         -5.5204167555       -3.6703985155       -0.4012159294
 H         -4.4461000185       -3.7780025719        1.0558945256
 H         -4.2599709937       -1.6139431828       -1.1625823981
