  62
        -98.94486003
 C         -2.4482435657       -1.1934834450       -0.0928779961
 C         -3.2779801124       -0.5344522782        0.8529601663
 C         -3.9656789668        0.6764638220        0.3907485675
 C         -3.7858441170        1.0878784851       -0.8772016594
 C         -4.3687561123        2.3391880403       -1.4654272948
 C         -3.4104279585        3.5269272980       -1.2990311717
 C         -2.8708623408        3.6931472779        0.1218743374
 H         -2.2265799528        2.8428926690        0.3604070498
 H         -2.2351264892        4.5814297494        0.1246829064
 C         -3.9535843045        3.8337217147        1.2013358530
 H         -4.9021471802        4.1098986491        0.7395149578
 H         -3.6711480613        4.6460683419        1.8741085602
 C         -4.1538599592        2.5881747078        2.0667282172
 H         -3.1877283220        2.2521361093        2.4518799242
 H         -4.7707480000        2.8665924126        2.9251533634
 C         -4.8372300276        1.4001999087        1.3779629214
 H         -5.0877655220        0.6673376606        2.1502899875
 H         -5.7630319867        1.7317144818        0.9038505406
 H         -3.9326246639        4.4367696355       -1.6008431132
 H         -2.5598936100        3.3839973365       -1.9702896154
 H         -4.5431068235        2.1712475235       -2.5295454133
 H         -5.3187073372        2.5544843915       -0.9801033752
 O         -3.0032274671        0.4222150099       -1.7619305862
 C         -2.3002715599       -0.7162895809       -1.3951189221
 O         -1.6113854831       -1.1888641023       -2.3227967507
 H          0.3146112722       -1.8395138304       -1.3349975015
 C          0.6291814261       -1.7373097719       -0.3071212912
 C         -0.2702311365       -2.0134319249        0.7133337259
 C          0.1431630679       -1.8336419758        2.0287256627
 C          1.4222089674       -1.3877402271        2.3120207617
 C          2.3097079141       -1.0991328926        1.2904803331
 C          1.9015831054       -1.2654009202       -0.0260873225
 N          2.7868048717       -0.9246739576       -1.0738700774
 S          3.1627038018        0.7170580240       -1.1519518411
 O          2.0973123844        1.5296112684       -0.6077146272
 O          3.5277043044        0.9688623006       -2.5292381688
 C          4.6173896468        0.8562876758       -0.1338465336
 C          4.6060403589        1.6762096449        0.9773129140
 C          5.7508890786        1.7675177916        1.7539371452
 C          6.8799476341        1.0413427234        1.4071346459
 C          6.8756616668        0.2241473815        0.2862416506
 C          5.7351948382        0.1294290552       -0.4950755619
 H          5.6892259202       -0.4887644028       -1.3759653760
 H          7.7557541266       -0.3384203722        0.0195883729
 H          7.7685727489        1.1129182160        2.0141742074
 H          5.7558805852        2.4027190603        2.6251365126
 H          3.7021263643        2.2161335642        1.2102124962
 H          2.4405903023       -1.2204252637       -1.9771649872
 H          3.3034338908       -0.7389846541        1.5019889851
 H          1.7285730643       -1.2550618224        3.3383857941
 H         -0.5571613138       -2.0246383406        2.8290668909
 C         -1.6909566738       -2.4175502824        0.4007329278
 H         -2.1778016311       -2.6927929669        1.3457871228
 C         -1.7657862720       -3.6016928777       -0.5405500278
 C         -1.4472327707       -4.9671881301       -0.0117744745
 C         -2.8597659026       -4.6095074709       -0.3613589949
 H         -3.3027808771       -5.0486490539       -1.2425816901
 H         -3.5605508981       -4.4485104599        0.4447364302
 H         -1.1896229092       -5.0491166717        1.0332367589
 H         -0.9174019719       -5.6559444131       -0.6515761321
 H         -1.4700938235       -3.3714552777       -1.5556289936
 O         -3.4375646316       -0.9468469670        2.0324034782
