  62
        -98.93681241
 C          1.2270987552        1.7377660876        0.1117057833
 C          1.4151748868        0.5576366262       -0.6437473083
 C          2.6093431988       -0.2518299054       -0.3175375558
 C          3.4012093273        0.1280944432        0.7002865531
 C          4.6808431138       -0.5049791825        1.1829021499
 C          5.7210332950       -0.7933567800        0.0873057959
 C          5.9442188245       -2.2854841690       -0.1572393995
 H          6.9266054502       -2.4225345265       -0.6146607025
 H          5.9588278562       -2.8000585560        0.8057372101
 C          4.9114271065       -2.9433136452       -1.0700638094
 H          5.0601147629       -2.5915611558       -2.0933449931
 H          5.1057782786       -4.0184822829       -1.0659708158
 C          3.4485816485       -2.7087379142       -0.6828455284
 H          3.3362720845       -2.7377447134        0.3989187463
 H          2.8668951411       -3.5386710446       -1.0889473645
 C          2.8511541777       -1.4122294448       -1.2460305569
 H          3.4682670378       -1.0545473621       -2.0772436061
 H          1.8672160432       -1.6207027656       -1.6776025183
 H          5.4243621896       -0.3028366051       -0.8395058802
 H          6.6699269611       -0.3524186792        0.3966620331
 H          5.0917867146        0.1977776240        1.9107457759
 H          4.4487108001       -1.4215203964        1.7280431191
 O          3.1169544561        1.2158867598        1.4725360613
 C          2.0612655438        2.0559551243        1.1868466402
 O          1.9677386149        3.0405930338        1.9464654478
 H         -1.5606096291        1.0496047335       -1.5181671845
 C         -1.9525406354        1.3476865104       -0.5584674706
 C         -1.2150847384        2.2036991503        0.2461607432
 C         -1.7173296161        2.5361318309        1.4999813513
 C         -2.9331195192        2.0354468504        1.9303345153
 C         -3.6692103690        1.1862324932        1.1225480498
 C         -3.1645377150        0.8325038283       -0.1217291720
 N         -3.8880685623       -0.0692278285       -0.9342889545
 S         -4.0814921789       -1.6100396504       -0.3038254064
 O         -4.5220275683       -2.4314354468       -1.4080049681
 O         -4.9674403181       -1.5414660309        0.8306275743
 C         -2.4491006372       -2.0966188769        0.2213633389
 C         -1.6429459497       -2.7820713708       -0.6642885297
 C         -0.3505347622       -3.1009550354       -0.2840033445
 C          0.1180254434       -2.7104518475        0.9600791333
 C         -0.7009124487       -2.0153024878        1.8351127936
 C         -2.0004115498       -1.7075310452        1.4674972640
 H         -2.6688410889       -1.1783447990        2.1266154732
 H         -0.3301970522       -1.7067352774        2.7998935236
 H          1.1288360909       -2.9484203849        1.2496656992
 H          0.2890281377       -3.6453932345       -0.9598074635
 H         -2.0438867603       -3.0617740411       -1.6254156336
 H         -3.4987352211       -0.1465351160       -1.8642660432
 H         -4.6115931983        0.7739126147        1.4453452421
 H         -3.3127566040        2.3094493638        2.9030918158
 H         -1.1367243102        3.1855732103        2.1399012658
 C          0.1243155667        2.7411016327       -0.1933508402
 H          0.3491955934        3.6177607198        0.4284074020
 C          0.1338893669        3.1699024827       -1.6475567723
 C         -0.6176255221        4.4029478791       -2.0464080544
 C          0.8810072372        4.4070247135       -2.0408625409
 H          1.4012759436        4.4159772600       -2.9870122575
 H          1.3876903753        4.9559301655       -1.2603002445
 H         -1.1290143655        4.4117718553       -2.9967623764
 H         -1.1288632821        4.9485089404       -1.2675986040
 H          0.1527327571        2.3427684272       -2.3449665307
 O          0.6493918246        0.1887902331       -1.5732822166
