  62
        -98.94313041
 C         -1.1517324570       -1.2640705708       -0.0757017347
 C         -1.9213782296       -0.7003159683        0.9759710850
 C         -2.8183179060        0.4036720481        0.6130367396
 C         -2.8324499028        0.8442082842       -0.6574534410
 C         -3.7389654439        1.9181489347       -1.1840568946
 C         -5.0471153311        1.3231140462       -1.7249310898
 C         -5.7208762013        0.3365836818       -0.7710195081
 H         -6.6461181516        0.0052232700       -1.2475602333
 H         -5.0843917836       -0.5443736706       -0.6601345922
 C         -6.0382064266        0.9096909040        0.6173186795
 H         -6.0204245790        1.9995736549        0.5809972016
 H         -7.0515114893        0.6120235854        0.8951103894
 C         -5.1095819097        0.4238577607        1.7319069515
 H         -5.5506038332        0.7107121165        2.6901984031
 H         -5.0529070582       -0.6673639874        1.7122592693
 C         -3.6815694605        0.9830291137        1.6982251603
 H         -3.1975758069        0.7152705802        2.6417571609
 H         -3.7214109197        2.0717781043        1.6245173879
 H         -5.7332362297        2.1423259029       -1.9476599972
 H         -4.8294086231        0.7999094368       -2.6590336864
 H         -3.9541008119        2.6297753800       -0.3893010016
 H         -3.2280511217        2.4364867562       -1.9973050751
 O         -2.0430255705        0.3193372081       -1.6258963712
 C         -1.1965723682       -0.7523031403       -1.3727336629
 O         -0.5590813228       -1.1254319434       -2.3762673995
 O         -1.8691113524       -1.1156416601        2.1632346673
 C         -0.2774789066       -2.4531114981        0.2883924199
 C          1.1328585784       -2.0122982871        0.5804906202
 C          1.7468654093       -2.3078454282        1.7913404478
 C          3.0311659875       -1.8641447198        2.0592848731
 C          3.7263382825       -1.1123875631        1.1285230286
 C          3.1184447025       -0.8114232167       -0.0827836407
 C          1.8359827703       -1.2616699675       -0.3523947890
 H          1.3701253176       -1.0222621700       -1.2969914062
 N          3.7992894620        0.0018750123       -1.0219737856
 S          3.9447263817        1.5961553213       -0.5189522584
 O          4.2229345563        2.3675778535       -1.7085161271
 O          4.9327286323        1.6598613323        0.5274428190
 C          2.3366192001        2.0054787093        0.1368502628
 C          1.3506253313        2.4167571117       -0.7370900957
 C          0.0800361356        2.6651369043       -0.2449473301
 C         -0.1854127662        2.4811686742        1.1030194210
 C          0.8131850945        2.0594820891        1.9663344445
 C          2.0885604824        1.8195910086        1.4819756324
 H          2.8934323148        1.4978737978        2.1222284738
 H          0.5976857857        1.9101661710        3.0119508517
 H         -1.1777691359        2.6632266402        1.4831724355
 H         -0.7005949562        2.9907875819       -0.9137784530
 H          1.5935268548        2.5465359684       -1.7800026567
 H          3.3522587128       -0.0101077856       -1.9293503386
 H          4.7168330726       -0.7360633291        1.3266792448
 H          3.4939015405       -2.1011741916        3.0050310381
 H          1.2042237806       -2.8752384041        2.5330039802
 H         -0.7054684117       -2.8305311957        1.2301997324
 C         -0.3568332345       -3.5832130460       -0.7302185220
 C          0.7953267810       -4.0301650416       -1.5747924234
 C          0.3200683749       -4.8917202181       -0.4460934912
 H         -0.2029442414       -5.8080546617       -0.6738455637
 H          0.9431383899       -4.9445470423        0.4340957805
 H          0.5819436412       -4.3335009302       -2.5886011856
 H          1.7420729140       -3.5251710001       -1.4655864876
 H         -1.3352528242       -3.6365731459       -1.1974772933
