  62
        -98.94509723
 C         -2.5581730767       -0.0484924655        0.3826173478
 C         -2.2604791295        0.5802651880       -0.8504082070
 C         -1.9906127387        2.0231681485       -0.7849696479
 C         -2.0521194940        2.6531389586        0.4018516786
 C         -1.8239072058        4.1227109834        0.6085815968
 C         -0.3654338065        4.4400572873        0.9610096272
 C          0.6586932974        3.8052145630        0.0203015457
 H          1.6437880789        4.1639236328        0.3288093360
 H          0.6608736673        2.7219812195        0.1611864696
 C          0.4462223985        4.1189845690       -1.4669903839
 H          1.4165729872        4.3460165240       -1.9132891974
 H         -0.1781068354        5.0070599202       -1.5764195335
 C         -0.1555522501        2.9663553269       -2.2740861380
 H          0.3762738674        2.0421470000       -2.0321080320
 H          0.0012483033        3.1736460147       -3.3362639538
 C         -1.6568218974        2.7223824395       -2.0719431659
 H         -2.2002816996        3.6663828770       -2.1547173883
 H         -1.9994252503        2.0561602397       -2.8691973035
 H         -0.2427581990        5.5253925664        0.9562943991
 H         -0.1660296699        4.0793310120        1.9730305120
 H         -2.1116834922        4.6542772827       -0.2967128835
 H         -2.4637576969        4.4514246269        1.4300434554
 O         -2.3324830532        2.0129593965        1.5676654448
 C         -2.5646896780        0.6475179203        1.5891405577
 O         -2.7761383634        0.1788005767        2.7287576662
 H         -0.2399973090       -0.9373290074        0.5887182117
 C         -0.3922787711       -1.8411248748        0.0166902292
 C         -1.6837454853       -2.3120026939       -0.1799220520
 C         -1.8568077551       -3.4910173522       -0.8937796543
 C         -0.7610100805       -4.1652983975       -1.4054183086
 C          0.5199087994       -3.6765838097       -1.2316019370
 C          0.7031163784       -2.4922173599       -0.5237524019
 N          1.9865232698       -1.9374100618       -0.3918696762
 S          2.2790520046       -0.6215804318        0.6066884282
 O          2.0251589638       -0.9613912493        1.9918265258
 O          1.5813638632        0.5250240059        0.0856834039
 C          4.0315913338       -0.4333473922        0.3426923166
 C          4.4622954385        0.2976808423       -0.7479676022
 C          5.8234704397        0.4222696581       -0.9763750877
 C          6.7265188902       -0.1839646619       -0.1156719036
 C          6.2797851461       -0.9121418051        0.9767480003
 C          4.9195536951       -1.0406778676        1.2102906341
 H          4.5262414458       -1.5866416161        2.0527914437
 H          6.9841557054       -1.3790205244        1.6461794451
 H          7.7853428195       -0.0854174308       -0.2956189712
 H          6.1737961074        0.9910902445       -1.8224648954
 H          3.7224121061        0.7571972029       -1.3827825501
 H          2.7363285096       -2.6130388459       -0.3940358560
 H          1.3709274972       -4.1944594745       -1.6457667759
 H         -0.9088351427       -5.0829526621       -1.9543720062
 H         -2.8493794224       -3.8809907418       -1.0504020254
 C         -2.8341021773       -1.5397034477        0.4215654027
 H         -2.9051823096       -1.8089876683        1.4869560317
 C         -4.1613062878       -1.8396613560       -0.2478538502
 C         -5.0342553809       -2.9505004868        0.2515323144
 C         -5.4274278574       -1.5243207407        0.4885618887
 H         -6.2590631143       -1.1157817989       -0.0654333969
 H         -5.3286074296       -1.1232826129        1.4872217719
 H         -4.6824925418       -3.5227866362        1.0967973050
 H         -5.6019070393       -3.5226283398       -0.4668402708
 H         -4.1387183534       -1.6419482704       -1.3134738629
 O         -2.2386885492       -0.0293227711       -1.9520811952
