  62
        -98.93982082
 C          2.6760501063        0.7783277073        0.2900390368
 C          2.7543295243       -0.3136583314        1.1873001472
 C          3.3552161615       -1.5404532850        0.6537132300
 C          3.7894825840       -1.5706805753       -0.6196354858
 C          4.4449417612       -2.7401364602       -1.3030076974
 C          3.4547828408       -3.7625861203       -1.8777037201
 C          2.7355480930       -4.6261907200       -0.8406697886
 H          2.2435614366       -5.4353318735       -1.3839207769
 H          3.4705862196       -5.0804811491       -0.1755676748
 C          1.6824767916       -3.8763977246       -0.0126047034
 H          1.4257736851       -2.9395031878       -0.5131514700
 H          0.7685216717       -4.4723139036        0.0392362687
 C          2.1072777876       -3.5717048438        1.4241376620
 H          1.3044706648       -3.0096813969        1.9084002462
 H          2.2411908183       -4.5065203193        1.9727643088
 C          3.3971199812       -2.7487171125        1.5402467156
 H          4.2613216711       -3.3672459028        1.2996709803
 H          3.4908497072       -2.4012588426        2.5720654377
 H          2.7179275959       -3.2313798923       -2.4847389480
 H          4.0177692931       -4.4229479446       -2.5413009335
 H          5.1226912295       -3.2377663950       -0.6088124211
 H          5.0313969741       -2.3285469140       -2.1272000495
 O          3.6928530937       -0.5004514233       -1.4520170656
 C          3.1136527249        0.6889213207       -1.0317602153
 O          3.0581931082        1.5679313272       -1.9116126252
 O          2.3377936618       -0.2662382996        2.3767984034
 C          2.0452086580        2.0731907556        0.7713015251
 C          0.7582958605        2.3127012187        0.0192088289
 C          0.4961420633        3.4597507206       -0.7162650724
 C         -0.7056689728        3.5975393920       -1.3905202302
 C         -1.6663738500        2.6051638964       -1.3443832809
 C         -1.4200161070        1.4575063086       -0.6002508737
 C         -0.2180177638        1.3243617153        0.0778891135
 H         -0.0233135429        0.4323333753        0.6608563456
 N         -2.3832594562        0.4311133682       -0.5545113826
 S         -3.9943206257        0.8994208084       -0.3471107365
 O         -4.5199647413        1.3011435774       -1.6277825097
 O         -4.0943757526        1.8798255298        0.7108790257
 C         -4.7410449420       -0.6381632680        0.1538304969
 C         -4.9645664737       -0.8773915739        1.4963289311
 C         -5.5313203535       -2.0838395081        1.8765488160
 C         -5.8594938271       -3.0260482494        0.9134101651
 C         -5.6280145142       -2.7715025050       -0.4303923356
 C         -5.0633503482       -1.5667718718       -0.8177061655
 H         -4.8749465942       -1.3211696864       -1.8497582278
 H         -5.8869251967       -3.5058419179       -1.1759855276
 H         -6.3014347140       -3.9634849522        1.2121143193
 H         -5.7148841694       -2.2832329636        2.9200538760
 H         -4.7015701994       -0.1126014602        2.2095990698
 H         -2.1317089509       -0.2918942977        0.1060776534
 H         -2.6047881058        2.7050027603       -1.8655619868
 H         -0.8962594923        4.4925002392       -1.9637309992
 H          1.2328115267        4.2440299318       -0.7694358477
 H          1.7899305763        1.8959124786        1.8267272289
 C          3.0270371522        3.2217359010        0.6967065363
 C          2.8467364425        4.4162274545        1.5836734445
 C          3.9629562034        3.4511767165        1.8440255091
 H          4.9746883208        3.7607328238        1.6292537775
 H          3.8805098284        2.7890652869        2.6936311627
 H          3.0932427415        5.3916482428        1.1925675131
 H          2.0045810468        4.4129207738        2.2591823661
 H          3.4153503359        3.3784686774       -0.3029287776
