  62
        -98.93130487
 C         -2.1448608226       -0.5358358232        0.3458276116
 C         -3.3159695276       -0.3630402896        1.1257458436
 C         -4.5014750179        0.1923081580        0.4480816479
 C         -4.3986850659        0.5620465713       -0.8406718681
 C         -5.4550627059        1.1406335831       -1.7477603620
 C         -6.3589575328        2.2308913765       -1.1520773419
 C         -7.7969226174        1.7668681783       -0.9123988350
 H         -8.4510630044        2.6416009750       -0.9157948740
 H         -8.1002511374        1.1306790801       -1.7465517229
 C         -8.0302902999        1.0219475012        0.4008361273
 H         -7.9699813248        1.7273993632        1.2323652287
 H         -9.0497513950        0.6294778907        0.3813369194
 C         -7.0656842928       -0.1329373307        0.6772104247
 H         -7.5509621613       -0.8127572514        1.3807947455
 H         -6.8783993054       -0.6999819130       -0.2341507089
 C         -5.7347851779        0.3137627123        1.3009059540
 H         -5.5208339970       -0.2936180863        2.1858317411
 H         -5.8172438258        1.3441759415        1.6580802353
 H         -5.9235556055        2.6106157046       -0.2291762999
 H         -6.3878942671        3.0604786097       -1.8603693792
 H         -6.0675449394        0.3201299178       -2.1304614684
 H         -4.9043732416        1.5411389556       -2.6020306847
 O         -3.2379341769        0.4233068540       -1.5407555187
 C         -2.0912328786       -0.1276155910       -0.9871207512
 O         -1.1338657900       -0.1844168919       -1.7806543044
 O         -3.3734218251       -0.6671385608        2.3473591211
 C         -0.9333585068       -1.1358402407        1.0377281871
 C          0.2911523657       -0.2933971387        0.7952018467
 C          0.4892605293        0.8632372351        1.5428419769
 C          1.6006748116        1.6594429666        1.3369328647
 C          2.5371171136        1.3195860017        0.3758773238
 C          2.3416859370        0.1739354263       -0.3820004582
 C          1.2328375604       -0.6293651400       -0.1651313366
 H          1.0915119772       -1.5130077898       -0.7686284666
 N          3.3075476760       -0.1722959199       -1.3622154047
 S          4.6558407240       -0.9508421274       -0.7211129827
 O          5.3382990854       -1.5516432167       -1.8462586526
 O          4.2848276056       -1.8507105126        0.3502145089
 C          5.6272196547        0.3900274284       -0.0722462113
 C          5.7068864328        0.5753773986        1.2937814678
 C          6.4511026970        1.6377649007        1.7823797514
 C          7.0977670333        2.4907379726        0.9008782892
 C          7.0085935277        2.2896805859       -0.4687606472
 C          6.2658166790        1.2297809531       -0.9638484800
 H          6.1726916253        1.0323755263       -2.0188715298
 H          7.5137869252        2.9548572989       -1.1504742658
 H          7.6756087280        3.3171074252        1.2838553624
 H          6.5214251639        1.7963261692        2.8464823969
 H          5.1846084164       -0.1117984377        1.9397469069
 H          2.9164963733       -0.7488079023       -2.0952478039
 H          3.4004723265        1.9397381938        0.1972418559
 H          1.7387406438        2.5526388652        1.9267182126
 H         -0.2452831848        1.1323287462        2.2895380476
 H         -1.1782040445       -1.0778998426        2.1107054808
 C         -0.6954388195       -2.6074521149        0.7291299117
 C         -1.8484204234       -3.5590715914        0.6258803919
 C         -1.0321954982       -3.2366691907       -0.5880719520
 H         -0.3650219298       -3.9947678969       -0.9733329231
 H         -1.4671014139       -2.6126576949       -1.3531644393
 H         -1.7516407045       -4.5388678906        1.0683901006
 H         -2.8421256429       -3.1413187774        0.6959710941
 H          0.1971036775       -2.9791401831        1.2252909082
