  62
        -98.94645592
 C          1.3319631200        1.1366561601       -0.1154506721
 C          2.3652909703        0.9995168307        0.8468829377
 C          3.1309910701       -0.2522622295        0.8032014984
 C          2.8022831797       -1.1900130600       -0.1038746509
 C          3.5326624495       -2.4868250003       -0.2976727202
 C          4.6548764792       -2.3426144512       -1.3355383806
 C          5.5660876295       -1.1380489511       -1.1004859717
 H          6.3354846492       -1.1563899618       -1.8755057120
 H          4.9897846995       -0.2209322811       -1.2423015022
 C          6.2340253099       -1.1068330102        0.2812641780
 H          6.1965168799       -2.0983271699        0.7340263687
 H          7.2876403799       -0.8485255605        0.1552961675
 C          5.6375636303       -0.0842922795        1.2502588575
 H          5.5905287303        0.8946296102        0.7663935268
 H          6.3119748705        0.0068256610        2.1059571772
 C          4.2446091804       -0.4192362089        1.7983851081
 H          4.2458197804       -1.4301157886        2.2108294689
 H          4.0299514307        0.2826058717        2.6094716777
 H          5.2504884191       -3.2573334012       -1.3292288502
 H          4.2013366589       -2.2394563218       -2.3239695706
 H          3.9458181497       -2.8120482097        0.6551763999
 H          2.8229566493       -3.2356167004       -0.6527319995
 O          1.7879422395       -1.0369549505       -0.9895232607
 C          1.0280865396        0.1222550295       -1.0242706013
 O          0.1423449594        0.1130877290       -1.9000570110
 O          2.6357476407        1.8862180612        1.6998369670
 C          0.5132855802        2.4184564803       -0.0887909828
 C         -0.8434911997        2.0840931208        0.4780695279
 C         -1.0520589893        2.1418804718        1.8527573779
 C         -2.2594147091        1.7507821524        2.4022674085
 C         -3.2767983494        1.2723995919        1.5946689092
 C         -3.0705278699        1.1968247709        0.2240616392
 C         -1.8723103800        1.6230146104       -0.3298411515
 H         -1.7239674703        1.5457951796       -1.3950466015
 N         -4.0779751002        0.6485260805       -0.6015772902
 S         -4.4634174003       -0.9494214492       -0.2660970189
 O         -5.0988253707       -1.4557091600       -1.4616756484
 O         -5.2570333699       -0.9919796583        0.9369164813
 C         -2.9022038403       -1.7671457492        0.0096899112
 C         -2.1876425407       -2.2142578101       -1.0828583987
 C         -0.9519005407       -2.8055784001       -0.8802652187
 C         -0.4480708903       -2.9231921793        0.4052211113
 C         -1.1745583500       -2.4632168684        1.4923079712
 C         -2.4161148399       -1.8814081384        1.2966246111
 H         -3.0154714397       -1.5224628677        2.1168705011
 H         -0.7749196997       -2.5528294778        2.4898733211
 H          0.5197433196       -3.3735101793        0.5623265213
 H         -0.3794737410       -3.1531427108       -1.7250645586
 H         -2.6083473210       -2.1017776707       -2.0691672587
 H         -3.8544700804        0.7301651498       -1.5842427603
 H         -4.2160398894        0.9371356823        2.0041965697
 H         -2.4081636688        1.8097003431        3.4697765385
 H         -0.2474091590        2.4823564322        2.4888994974
 H          1.0278253505        3.0767256807        0.6234879366
 C          0.4571911799        3.1095935493       -1.4348857032
 C         -0.0166414799        4.5296657793       -1.5045351341
 C          1.4290605100        4.2096635690       -1.7345689543
 H          1.8229843797        4.2898878382       -2.7367544144
 H          2.1393222402        4.4742771894       -0.9649293247
 H         -0.6176638501        4.8329778188       -2.3480882041
 H         -0.2884189296        5.0095687100       -0.5764934343
 H          0.1965152696        2.4495471088       -2.2524040727
