  62
        -98.94614099
 C         -1.1412828623       -1.3140381687       -0.0023185634
 C         -1.6269164431       -0.4172145779        0.9842238205
 C         -2.4234532747        0.7199129015        0.5063702501
 C         -2.6187418608        0.8700544297       -0.8161088387
 C         -3.4207303175        1.9715459581       -1.4454119141
 C         -4.8876016447        1.5599216343       -1.6310918040
 C         -5.5220001362        0.9626870099       -0.3749749050
 H         -6.5645236472        0.7398147213       -0.6119197348
 H         -5.0333476899        0.0122951075       -0.1485105911
 C         -5.4601180990        1.8719938069        0.8602070724
 H         -5.2635194141        2.8998558492        0.5534260907
 H         -6.4354648372        1.8609666907        1.3511698343
 C         -4.4292916248        1.4490576550        1.9082760692
 H         -4.5633603036        0.3907056159        2.1452562248
 H         -4.6233123063        2.0166197507        2.8221736597
 C         -2.9587188591        1.6764968182        1.5348920522
 H         -2.8141984022        2.7097300868        1.2120431140
 H         -2.3628337648        1.5104971321        2.4368718180
 H         -5.4547124232        2.4374385078       -1.9472029438
 H         -4.9395266585        0.8161463801       -2.4297263932
 H         -3.3571871445        2.8606013468       -0.8204684934
 H         -2.9847776884        2.1949748273       -2.4211465714
 O         -2.1351929116       -0.0008150493       -1.7350484086
 C         -1.3843647568       -1.1098744038       -1.3626601358
 O         -1.0189598143       -1.8059403328       -2.3295698711
 H          1.1034167305       -0.8944355035       -1.2576070677
 C          1.7236529487       -1.2934291076       -0.4705894698
 C          1.1816210752       -2.1221760347        0.4991706548
 C          2.0244101221       -2.6350088004        1.4801347938
 C          3.3715124448       -2.3240272236        1.4866421331
 C          3.9004791660       -1.4683462980        0.5362698481
 C          3.0668967670       -0.9458061937       -0.4440965466
 N          3.5512234493       -0.0382961141       -1.4063100147
 S          2.7350187009        1.4197592059       -1.5515909304
 O          1.4771008201        1.2353887806       -2.2275880226
 O          3.6829945580        2.3021332387       -2.1981460398
 C          2.4740496349        1.9292483125        0.1366667538
 C          1.2828779664        1.6201461592        0.7601587374
 C          1.1318894435        1.9168772670        2.1052782375
 C          2.1673429801        2.5252488634        2.7973322827
 C          3.3537981980        2.8443138618        2.1533062805
 C          3.5155931927        2.5350701355        0.8128406966
 H          4.4206706429        2.7645940314        0.2740244007
 H          4.1539403032        3.3234959034        2.6940007077
 H          2.0454732689        2.7516147887        3.8447155928
 H          0.2118735317        1.6471755468        2.5997139213
 H          0.4922040931        1.1514243894        0.1949369683
 H          4.5458407463        0.1307760032       -1.3438809472
 H          4.9467375839       -1.2042192626        0.5524272238
 H          4.0136996832       -2.7338247422        2.2507354438
 H          1.6146190270       -3.2743097511        2.2469009328
 C         -0.2917828951       -2.4663770150        0.4993595561
 H         -0.5916894696       -2.6144694648        1.5466913150
 C         -0.5141494756       -3.7670992168       -0.2489231823
 C         -0.3459144859       -5.0752222749        0.4616504361
 C         -1.7142317563       -4.6051420253        0.0711246658
 H         -2.2258288791       -5.0995863418       -0.7407065047
 H         -2.3738303324       -4.2528535164        0.8509944792
 H          0.0890496284       -5.9000100557       -0.0813510233
 H         -0.0890293837       -5.0534799915        1.5094125483
 H         -0.2109515843       -3.7148152103       -1.2869135929
 O         -1.3979936857       -0.5611993738        2.2154805116
