  62
        -98.93989284
 C          1.8725675576        0.5682850886        0.0135324427
 C          2.4331650547       -0.7196727675        0.2147539787
 C          3.8430969804       -0.8833579927       -0.1537044792
 C          4.5190633612        0.1572896411       -0.6726966768
 C          5.9553799634        0.1481586649       -1.1210221397
 C          6.9648552824        0.3711931470        0.0133134198
 C          7.1397682206       -0.8091608825        0.9696770120
 H          7.3407730193       -1.7140735308        0.3953963385
 H          8.0254164679       -0.6035630854        1.5741931491
 C          5.9475225219       -1.0466574501        1.9071039068
 H          5.3173215024       -0.1545911286        1.9286908105
 H          6.3102993221       -1.2067123326        2.9249553066
 C          5.0823151802       -2.2525697129        1.5404408130
 H          4.2489456295       -2.3045343105        2.2459102336
 H          5.6675345434       -3.1691376420        1.6434898953
 C          4.4979733716       -2.2029506127        0.1226244564
 H          5.2774299434       -2.4022302077       -0.6127536209
 H          3.7316084927       -2.9777849463        0.0397670087
 H          6.6652705328        1.2566805452        0.5785316341
 H          7.9319572771        0.5830769230       -0.4484145322
 H          6.0611734346        0.9623862778       -1.8410780713
 H          6.1753504457       -0.7931064946       -1.6256213860
 O          3.9435798861        1.3701339794       -0.8719547671
 C          2.6167101416        1.6162489441       -0.5312642466
 O          2.2540659674        2.7819783053       -0.7689056876
 O          1.7810624124       -1.6894796213        0.6882046113
 C          0.4176182724        0.7437575853        0.4117074470
 C         -0.4928175152        0.4452175389       -0.7521639796
 C         -0.3022877611        1.0592138894       -1.9870748417
 C         -1.1337986270        0.7645751423       -3.0511811661
 C         -2.1736265769       -0.1368422807       -2.9041266208
 C         -2.3715474734       -0.7569985271       -1.6759144125
 C         -1.5338722737       -0.4604341237       -0.6077270518
 H         -1.6800961453       -0.9730483251        0.3312581046
 N         -3.4089644560       -1.6809849376       -1.5102066594
 S         -4.1681164600       -1.9021286687       -0.0460627117
 O         -3.3346085888       -2.6607374776        0.8521977398
 O         -5.4351381568       -2.5100960863       -0.3929609611
 C         -4.4551108033       -0.2732135818        0.6261849981
 C         -4.8920058335        0.7397761826       -0.2046997240
 C         -5.1481749865        1.9886991376        0.3381407965
 C         -4.9768026736        2.2017857075        1.6971315369
 C         -4.5447706821        1.1734135019        2.5199346475
 C         -4.2773055419       -0.0753305457        1.9806209333
 H         -3.9245415609       -0.8981824580        2.5819212700
 H         -4.4081825613        1.3393560889        3.5763964519
 H         -5.1769369649        3.1745957608        2.1168460500
 H         -5.4794204671        2.7914558776       -0.3004581565
 H         -5.0255908262        0.5496928846       -1.2568946960
 H         -4.0308487902       -1.7908792701       -2.2964934208
 H         -2.8195925649       -0.3702351692       -3.7366533505
 H         -0.9734325668        1.2443533564       -4.0048288544
 H          0.5044486562        1.7673609456       -2.1003346539
 H          0.2396211462       -0.0357328523        1.1702330895
 C          0.1260678294        2.0883595412        1.0637943721
 C         -0.7397756305        3.1395435753        0.4429781841
 C         -1.2404818567        2.3602102904        1.6190050287
 H         -1.3227054077        2.8542257274        2.5748735313
 H         -2.0018731535        1.6163632406        1.4377974820
 H         -0.4486387192        4.1688616691        0.5842844498
 H         -1.1735243444        2.9391337187       -0.5234549701
 H          0.9689482165        2.4456865335        1.6462254739
