  62
        -98.94570730
 C          2.4897056869        1.1451017252       -0.0320988039
 C          3.1046876653        0.2665791537        0.8913867598
 C          3.6336604168       -0.9827335112        0.3348784043
 C          3.5120095047       -1.2300990844       -0.9822350630
 C          4.0055333017       -2.4563374660       -1.7008884066
 C          3.0298751049       -3.6400587601       -1.6446866095
 C          2.9325531712       -4.3375195093       -0.2872269562
 H          2.3871095336       -5.2700437070       -0.4446450547
 H          3.9330799662       -4.5980714199        0.0596181349
 C          2.2079333047       -3.5217074861        0.7929354147
 H          1.6268297445       -2.7253783923        0.3191850336
 H          1.4922947190       -4.1617471406        1.3151058289
 C          3.1296217365       -2.9114714164        1.8498051088
 H          2.5165869507       -2.3301745296        2.5438191339
 H          3.6125128588       -3.7101780771        2.4169563786
 C          4.2155834600       -1.9856133574        1.2851473622
 H          4.9909728349       -2.5719849606        0.7934250532
 H          4.6633903292       -1.4364461229        2.1169552429
 H          2.0383574624       -3.2915083440       -1.9454809437
 H          3.3626457692       -4.3733797237       -2.3828564406
 H          4.9709820861       -2.7584122471       -1.2943936239
 H          4.1399590886       -2.1710668411       -2.7463520060
 O          2.9173972749       -0.3587615802       -1.8386834744
 C          2.3577280023        0.8276037280       -1.3845208223
 O          1.7968654674        1.4989658385       -2.2702437636
 O          3.1986250471        0.5111024175        2.1253908146
 C          1.8580013514        2.4258398451        0.4880377521
 C          0.3609922610        2.3044617367        0.3397835420
 C         -0.4259617296        3.1927756693       -0.3792556294
 C         -1.7855735753        2.9680404943       -0.5179934678
 C         -2.3870971482        1.8630409265        0.0556420125
 C         -1.6094414289        0.9734287418        0.7861240309
 C         -0.2521774056        1.2037254871        0.9280138818
 H          0.3539407857        0.5037442325        1.4912758404
 N         -2.2147717880       -0.1645093915        1.3663947331
 S         -2.7983418404       -1.2938595924        0.2593270286
 O         -2.8319840068       -2.5504052634        0.9764808498
 O         -2.0323348375       -1.2751347954       -0.9670122636
 C         -4.4651673225       -0.7495505105       -0.0439798917
 C         -4.8457399586       -0.3695676896       -1.3157672132
 C         -6.1484831134        0.0564005239       -1.5249071067
 C         -7.0408700129        0.0951465024       -0.4643538891
 C         -6.6426243459       -0.2916989996        0.8068801832
 C         -5.3426623537       -0.7201138746        1.0225560852
 H         -4.9920415676       -1.0342097883        1.9913710361
 H         -7.3395079817       -0.2599185180        1.6287781015
 H         -8.0529692268        0.4290277584       -0.6299528259
 H         -6.4595541259        0.3575738155       -2.5123295748
 H         -4.1138457146       -0.4095345275       -2.1068442449
 H         -1.6057067196       -0.6357797210        2.0217680239
 H         -3.4438296939        1.6827862221       -0.0566366366
 H         -2.3843331425        3.6626134489       -1.0870491333
 H          0.0270771969        4.0521513947       -0.8450438483
 H          2.0942618399        2.4509977317        1.5620950748
 C          2.4499825338        3.6506641017       -0.1722766380
 C          2.3785759073        4.9781613386        0.5198260396
 C          3.6892050498        4.2607900385        0.4083411143
 H          4.4364078693        4.6490910194       -0.2672046892
 H          4.1004164340        3.8024222398        1.2959426821
 H          2.2275239874        5.8638368788       -0.0782217240
 H          1.8997209856        5.0111444368        1.4866492443
 H          2.3633376417        3.6282078234       -1.2522063679
