  62
        -98.94684690
 C         -1.6797415470       -1.2348296220        0.3905912467
 C         -1.3706956132       -0.1781595166       -0.4999421842
 C         -2.0669773728        1.0882129731       -0.2523516569
 C         -2.8811661721        1.2062783692        0.8114339483
 C         -3.6381748162        2.4423048947        1.2154689898
 C         -4.9681116516        2.6332940349        0.4727258970
 C         -4.8432878630        3.0559399579       -0.9916161674
 H         -5.8373439433        3.3654007380       -1.3204070689
 H         -4.1908343496        3.9268385156       -1.0612636493
 C         -4.3342231228        1.9520387435       -1.9288563911
 H         -4.4363061829        0.9820086139       -1.4370352916
 H         -4.9541352050        1.9234980014       -2.8276273140
 C         -2.8847190777        2.1254231763       -2.3825954695
 H         -2.6175292721        1.2719853290       -3.0104643696
 H         -2.7951361715        3.0308206902       -2.9866544432
 C         -1.8712111606        2.2036596574       -1.2332739775
 H         -1.9417113526        3.1671834118       -0.7284344761
 H         -0.8642735161        2.1062973994       -1.6467964388
 H         -5.5389502208        1.7040374093        0.5371129215
 H         -5.5286077477        3.4052652057        1.0050665253
 H         -3.0053890942        3.3190342856        1.0719089147
 H         -3.8500189506        2.3413125774        2.2824304514
 O         -3.1004400995        0.1854668468        1.6844904527
 C         -2.5117278137       -1.0542672795        1.4928520006
 O         -2.7964366928       -1.9005693901        2.3676673892
 O         -0.5581337956       -0.2890332068       -1.4542346458
 C         -1.0179268199       -2.5904692904        0.2083799096
 C          0.4790992590       -2.4030975307        0.1941283244
 C          1.3228443973       -2.9773275737       -0.7477461155
 C          2.6771058475       -2.6885047697       -0.7499002503
 C          3.2131725332       -1.8064318724        0.1707861661
 C          2.3806430221       -1.2493486902        1.1315748797
 C          1.0357040707       -1.5699265733        1.1573157669
 H          0.3939327526       -1.1162935631        1.9036930483
 N          2.9175365664       -0.2681240413        2.0189803289
 S          2.5384268484        1.2805570214        1.4478125052
 O          3.2003180197        2.2023700773        2.3479465875
 O          1.1066251610        1.4630040010        1.3279382430
 C          3.3273035457        1.2955559141       -0.1433066079
 C          2.6139773470        0.9144433232       -1.2625576777
 C          3.2684832996        0.8780147522       -2.4845192113
 C          4.6104483882        1.2165533519       -2.5644491889
 C          5.3106779306        1.5966573436       -1.4289877823
 C          4.6654912316        1.6340525698       -0.2037407288
 H          5.1638166208        1.9223751883        0.7072391745
 H          6.3542380790        1.8592416762       -1.4945126530
 H          5.1130785885        1.1825420123       -3.5182509652
 H          2.7209712648        0.5770373379       -3.3632027016
 H          1.5719592510        0.6457325954       -1.1705210109
 H          2.5386672486       -0.3457379825        2.9546292052
 H          4.2572560709       -1.5397962494        0.1554136648
 H          3.3172043610       -3.1360973111       -1.4940889435
 H          0.9144229249       -3.6383649988       -1.4945928689
 H         -1.2906531752       -3.1876715617        1.0908905700
 C         -1.5530161398       -3.2719253426       -1.0338670667
 C         -1.6003570738       -4.7674046087       -1.1166254316
 C         -2.8683803601       -3.9849300227       -0.9579758408
 H         -3.5425667143       -3.9144444719       -1.7982802499
 H         -3.3672531738       -4.0013738708        0.0004581607
 H         -1.4077638481       -5.2378824308       -2.0688673850
 H         -1.2426596755       -5.3271635542       -0.2657703474
 H         -1.3387337553       -2.7128530620       -1.9374626750
