  62
        -98.93593450
 C         -2.2799036599       -1.2599013808        0.1923388804
 C         -3.2155105202       -0.6118986306        1.0350879999
 C         -4.0778310903        0.4111263889        0.4180272093
 C         -3.9003992302        0.7250642084       -0.8786607908
 C         -4.6436488303        1.6839939878       -1.7853338614
 C         -5.6080850806        2.7163609278       -1.2076095020
 C         -4.9442256810        3.8211038783       -0.3857361124
 H         -4.3747248811        4.4625159882       -1.0632457726
 H         -5.7293479213        4.4301216884        0.0674300472
 C         -3.9894496111        3.3479234991        0.7076125380
 H         -3.1515465909        2.8119178791        0.2557026984
 H         -3.5753642014        4.2343505394        1.1962229776
 C         -4.6172387611        2.4714841994        1.7896263683
 H         -5.4732973513        2.9872908394        2.2286680979
 H         -3.8704296412        2.3336506500        2.5764138285
 C         -5.0688737007        1.0746543991        1.3308707188
 H         -6.0527257806        1.1096296386        0.8694683287
 H         -5.1435284706        0.4377519495        2.2171485291
 H         -6.3844978706        2.2235349379       -0.6298867619
 H         -6.1014567406        3.1916853173       -2.0596906523
 H         -3.8734004103        2.1987873977       -2.3688997915
 H         -5.1940242000        1.0538107373       -2.4928384812
 O         -2.9425091999        0.1170057883       -1.6374341804
 C         -2.1096161098       -0.8747731813       -1.1371692898
 O         -1.2881718595       -1.3049457215       -1.9668714594
 O         -3.3316102003       -0.8794505401        2.2613477400
 C         -1.3961705997       -2.3300478103        0.8081044410
 C          0.0466630003       -2.0805405701        0.4470703311
 C          0.8355457206       -2.9815408902       -0.2545696283
 C          2.1475969406       -2.6681333300       -0.5644464083
 C          2.7018318502       -1.4616611697       -0.1793094387
 C          1.9198509499       -0.5498016896        0.5179850807
 C          0.6078154799       -0.8682031198        0.8307404707
 H         -0.0043520704       -0.1536552997        1.3689110902
 N          2.4752976095        0.6752127807        0.9275344103
 S          3.3408103595        1.5812160404       -0.1895754900
 O          3.2710364091        2.9408565206        0.3023388594
 O          2.8751404398        1.3628647497       -1.5393164100
 C          5.0101597196        0.9871688709       -0.0101367295
 C          5.5679548594        0.9796360616        1.2534420606
 C          6.8685999295        0.5272750120        1.4077000311
 C          7.5865764898        0.0958589817        0.3021426614
 C          7.0137365900        0.1135232110       -0.9602676987
 C          5.7124457099        0.5637937906       -1.1213727991
 H          5.2228233100        0.5889576300       -2.0820816792
 H          7.5730325902       -0.2217564893       -1.8188817585
 H          8.5984826398       -0.2565673580        0.4250007617
 H          7.3172734193        0.5118262526        2.3878757011
 H          4.9773521292        1.3252227719        2.0852606004
 H          1.8307238593        1.2628298908        1.4364377899
 H          3.7209635002       -1.2129211796       -0.4261559987
 H          2.7473910708       -3.3741254501       -1.1183875278
 H          0.4156011709       -3.9173473405       -0.5840872380
 H         -1.5021757600       -2.1752709898        1.8952652309
 C         -1.8526368194       -3.7543516705        0.5314124016
 C         -3.2978411792       -4.0665491210        0.2864725015
 C         -2.3024364790       -4.2078149312       -0.8238686783
 H         -2.0337160487       -5.2035625713       -1.1452647178
 H         -2.3071351991       -3.4794278316       -1.6193892186
 H         -3.7113884791       -4.9615402009        0.7264413818
 H         -3.9898518994       -3.2375705511        0.2500354410
 H         -1.3017813693       -4.4759235201        1.1268910820
