  62
        -98.94359538
 C         -0.6565589263       -1.5742757272        0.1736508092
 C         -1.3730207812       -0.6322735900        0.9429846349
 C         -2.3375781224        0.2149346933        0.2201150980
 C         -2.4548733717        0.0865462918       -1.1150632016
 C         -3.2730884106        0.8706978765       -2.1206338487
 C         -4.4049910508        1.7878667411       -1.6646686466
 C         -5.6072362209        1.0633976999       -1.0593059851
 H         -6.1185840839        0.5169613300       -1.8556691147
 H         -6.2998246723        1.8142464158       -0.6730510639
 C         -5.2831854731        0.0657932428        0.0497598779
 H         -4.6625076893       -0.7381152042       -0.3512536907
 H         -6.2231533933       -0.3859495048        0.3778685474
 C         -4.5976710156        0.6568266271        1.2797002241
 H         -4.5686978963       -0.1228968692        2.0452513762
 H         -5.1928904272        1.4853724610        1.6681115318
 C         -3.1554348639        1.1489823830        1.0659583640
 H         -2.6632779216        1.1777913923        2.0424591426
 H         -3.1397682060        2.1569143246        0.6567234964
 H         -4.7519381204        2.3187774254       -2.5554503734
 H         -4.0259811161        2.5408733668       -0.9798678391
 H         -3.6708534363        0.1321180794       -2.8241678671
 H         -2.5432398857        1.4663537521       -2.6822389500
 O         -1.7322694276       -0.8331948754       -1.8183835467
 C         -0.8177114843       -1.6721806208       -1.2074895432
 O         -0.2369968540       -2.4543957455       -1.9846825656
 O         -1.2039147516       -0.4883814949        2.1845133272
 C          0.3953775931       -2.4363515238        0.8485474745
 C          1.7363665576       -2.1361557517        0.2253356079
 C          2.6419449420       -3.1087865546       -0.1757052042
 C          3.8228133456       -2.7460369166       -0.8013793961
 C          4.1144183828       -1.4188193151       -1.0559367049
 C          3.2212429309       -0.4366989553       -0.6411693712
 C          2.0640174829       -0.8009466574        0.0240059417
 H          1.3744794506       -0.0347796636        0.3471783794
 N          3.4757807552        0.9233911335       -0.8690112083
 S          2.2045230415        1.9810973222       -1.1269409561
 O          1.1020812179        1.3657744445       -1.8292260991
 O          2.8200379742        3.1138381146       -1.7893163071
 C          1.7141451702        2.4811587625        0.5088878673
 C          2.6988984220        2.8067639339        1.4208344600
 C          2.3247302640        3.2280146570        2.6863410298
 C          0.9805585552        3.3241279605        3.0135691049
 C          0.0045843534        3.0007959041        2.0843057657
 C          0.3723823890        2.5732109755        0.8185197634
 H         -0.3558342199        2.2905736767        0.0731542496
 H         -1.0402057525        3.0704139160        2.3400185843
 H          0.6889381592        3.6506913164        3.9992806958
 H          3.0803584692        3.4787609591        3.4132897010
 H          3.7318046764        2.7214059918        1.1277022552
 H          4.2652423167        1.1207585644       -1.4663763738
 H          5.0187217046       -1.1415805176       -1.5758327937
 H          4.5161132698       -3.5111110690       -1.1165860336
 H          2.4170981888       -4.1505095660       -0.0158120307
 H          0.4157636543       -2.1088770055        1.8987315180
 C          0.0133481450       -3.8999802945        0.7977354449
 C          0.4812382367       -4.8407788200        1.8667979388
 C         -0.9582655472       -4.4295363693        1.8081841291
 H         -1.6917677873       -5.1539436408        1.4874366842
 H         -1.3249876886       -3.7369553791        2.5515609670
 H          0.7349944463       -5.8523933970        1.5880734614
 H          1.0918814470       -4.4334890865        2.6581486166
 H         -0.0664843328       -4.2723414675       -0.2176007930
