  62
        -98.93910072
 C          2.2638271741        0.8081890981       -0.0308318785
 C          3.2937536232        0.6993022666        0.9335748034
 C          4.2386388484       -0.4236274097        0.7848286507
 C          4.0494186588       -1.2962819516       -0.2223624720
 C          4.8954035203       -2.4855893285       -0.5906632233
 C          6.1962740479       -2.0867482842       -1.3081721785
 C          6.9209922722       -0.8838542057       -0.7090936280
 H          7.7477387451       -0.6284732613       -1.3772246161
 H          6.2426843816       -0.0287887051       -0.6926352980
 C          7.4998855321       -1.1005027484        0.6869418565
 H          8.2225455585       -1.9188717353        0.6511621476
 H          8.0415317272       -0.1908817617        0.9587396658
 C          6.4858534767       -1.3990749768        1.7925230857
 H          7.0106711164       -1.3078455895        2.7480789728
 H          6.1329753217       -2.4249866600        1.7314873248
 C          5.3043767831       -0.4357522767        1.8543371743
 H          4.7721613234       -0.5987871925        2.7994086411
 H          5.6829777364        0.5910911451        1.9108486377
 H          6.8637909353       -2.9499449976       -1.3175542049
 H          5.9471324835       -1.8416729074       -2.3435271422
 H          5.1048717309       -3.0805656762        0.2933966964
 H          4.2974299639       -3.0982245462       -1.2690793938
 O          3.0241380181       -1.1693039441       -1.1122752338
 C          2.1138455984       -0.1299479272       -1.0509941105
 O          1.2482915912       -0.1575297095       -1.9482612582
 O          3.4310704571        1.5159991624        1.8836864049
 C          1.2835513502        1.9627932410        0.0936255189
 C         -0.0658067170        1.4046209030        0.4710307493
 C         -0.3123915687        1.0653272576        1.7988418889
 C         -1.5175423983        0.5005607528        2.1701230825
 C         -2.5002364749        0.2551571853        1.2260442028
 C         -2.2559788413        0.5711176888       -0.1029741011
 C         -1.0510965250        1.1568846643       -0.4710157447
 H         -0.8708188687        1.3858319921       -1.5092402002
 N         -3.2415392933        0.3256443405       -1.0726993135
 S         -4.0898654527       -1.1195062295       -1.0285602270
 O         -3.3083665725       -2.1924037767       -0.4579549445
 O         -4.5652090498       -1.3179300293       -2.3806917744
 C         -5.4828687291       -0.7510641273        0.0204034358
 C         -6.2249686312        0.3809860766       -0.2547593923
 C         -7.3180234482        0.6755729225        0.5442349989
 C         -7.6518023495       -0.1636322701        1.5968674890
 C         -6.8997573111       -1.2986370090        1.8576390226
 C         -5.8040982855       -1.5982443170        1.0627264946
 H         -5.1865688715       -2.4661202819        1.2323173130
 H         -7.1605814658       -1.9505652258        2.6758186560
 H         -8.5028699331        0.0681326170        2.2175568754
 H         -7.9049062535        1.5576044041        0.3444873848
 H         -5.9339845117        1.0058788022       -1.0823700106
 H         -2.9416675512        0.5376080945       -2.0134683043
 H         -3.4381995609       -0.1950386073        1.5068950681
 H         -1.6962991101        0.2466541717        3.2039425661
 H          0.4615261393        1.2404115916        2.5332225445
 H          1.6513044850        2.5636331436        0.9363105798
 C          1.2638563779        2.8267651980       -1.1497695473
 C          0.6222433945        4.1798956352       -1.0905316404
 C          2.1119365770        4.0607337208       -1.1980692910
 H          2.5854529990        4.3227214602       -2.1324353552
 H          2.7082066989        4.2910902618       -0.3274895672
 H          0.0707123642        4.5280354136       -1.9504254611
 H          0.2052342685        4.4894253243       -0.1443094335
 H          1.1687995981        2.2580712835       -2.0670617811
