  62
        -98.94566016
 C         -1.0979739309       -1.4428398883        0.7548376983
 C         -2.0037254728       -1.4392941570       -0.3328529908
 C         -3.0072853348       -0.3650878003       -0.3247015116
 C         -2.9890522884        0.5494820474        0.6619358123
 C         -3.9277159530        1.7163934801        0.7623367373
 C         -3.3649146734        2.9583364041        0.0578544474
 C         -2.8381143707        2.6896797776       -1.3512547755
 H         -2.4913142333        3.6428524427       -1.7553426777
 H         -1.9689114598        2.0306253968       -1.2879395702
 C         -3.8705285869        2.0806711352       -2.3100795158
 H         -3.8065598905        2.5984234171       -3.2694621853
 H         -4.8771450847        2.2416051791       -1.9221245948
 C         -3.6717540658        0.5911951028       -2.5948748867
 H         -4.3083365651        0.3184659763       -3.4409645468
 H         -2.6361650557        0.4078076547       -2.8927052866
 C         -4.0146762570       -0.3576819807       -1.4398709017
 H         -5.0118898142       -0.1285157689       -1.0584086725
 H         -4.0250035984       -1.3759614330       -1.8396017650
 H         -2.5416840004        3.3483600668        0.6576301572
 H         -4.1502031363        3.7152786812        0.0165223186
 H         -4.8847458672        1.4393398834        0.3238993383
 H         -4.0768857798        1.9456341943        1.8187473424
 O         -2.0815466619        0.5318387791        1.6722216906
 C         -1.1175662056       -0.4601452350        1.7448265113
 O         -0.3488281467       -0.3609934699        2.7223026956
 H          1.3228833082       -0.2934111325        0.2752103460
 C          1.5291333679       -1.0554179845       -0.4632142582
 C          0.9288040434       -2.3024629712       -0.3340100804
 C          1.2032969844       -3.2754111446       -1.2847484740
 C          2.0478172365       -2.9938316354       -2.3453239294
 C          2.6482701659       -1.7543945096       -2.4661996907
 C          2.3893290974       -0.7767177648       -1.5113634180
 N          2.9708105639        0.4979825457       -1.5971938549
 S          3.5367888261        1.2275725462       -0.1991981295
 O          4.5089960973        2.1926944135       -0.6697531886
 O          4.0257331622        0.2488589520        0.7438560439
 C          2.1486752762        2.1141840323        0.4730817792
 C          1.8344701759        1.9700147776        1.8091453676
 C          0.7983108374        2.7208357828        2.3403089956
 C          0.1028473060        3.6027953366        1.5293379320
 C          0.4252648323        3.7315464774        0.1862428673
 C          1.4592488296        2.9825231787       -0.3504911612
 H          1.7435247740        3.0601085895       -1.3868244035
 H         -0.1246110906        4.4145484752       -0.4413430233
 H         -0.6935366872        4.1956034001        1.9522765001
 H          0.5351069097        2.6020087425        3.3788534298
 H          2.3914773837        1.2657683794        2.4067121246
 H          3.6146357188        0.6197014416       -2.3656945069
 H          3.3105392280       -1.5399549014       -3.2913428180
 H          2.2461336832       -3.7542287355       -3.0855371145
 H          0.7485908673       -4.2486974151       -1.2038158729
 C         -0.0076562966       -2.4981575385        0.8340456508
 H          0.5570000225       -2.2852735577        1.7536488503
 C         -0.5945690163       -3.8892041126        0.9323049367
 C          0.2131099470       -4.9975358254        1.5357446227
 C         -0.9562088302       -4.4300475384        2.2815626319
 H         -1.8498551581       -5.0287141580        2.3744423726
 H         -0.7614121555       -3.8011553641        3.1383429326
 H          1.2047588159       -4.7569574061        1.8889539128
 H          0.1223804379       -5.9894066928        1.1195405548
 H         -1.2549243964       -4.1264771943        0.1069420890
 O         -1.9862852530       -2.2897632296       -1.2604557500
