  62
        -98.94514449
 C         -1.5245662708       -1.1900868685        0.0544216832
 C         -2.8600349107       -1.3232296771        0.5134374637
 C         -3.9012561807       -0.7196505192       -0.3266696078
 C         -3.5453693007       -0.0912801723       -1.4617174695
 C         -4.4918652407        0.6313016854       -2.3750497413
 C         -4.6101065105        2.1119510365       -1.9873400253
 C         -4.8726410503        2.3420568105       -0.4988118359
 H         -3.9982734103        2.0180653718        0.0711509249
 H         -4.9693033902        3.4197316209       -0.3491395187
 C         -6.1235109404        1.6354646821        0.0425974661
 H         -6.7774890305        1.3562028900       -0.7842384831
 H         -6.6764010302        2.3370830738        0.6707003943
 C         -5.8351265505        0.4018157143        0.9001140194
 H         -5.1061759504        0.6567599963        1.6736021786
 H         -6.7614434605        0.1147547358        1.4047791102
 C         -5.3240207507       -0.8311445978        0.1441879226
 H         -5.3454100008       -1.6775477359        0.8367678849
 H         -5.9905208408       -1.0533728799       -0.6914404367
 H         -5.4141604405        2.5599637550       -2.5741318664
 H         -3.6760805504        2.6145306456       -2.2505381367
 H         -4.1082878208        0.5617837027       -3.3943193912
 H         -5.4687394908        0.1537853157       -2.3306376100
 O         -2.2596220408       -0.0022734836       -1.8833552698
 C         -1.2143033608       -0.5278309817       -1.1341969185
 O         -0.0944888008       -0.3536219933       -1.6491741591
 H          1.8880771494       -0.3685421781        0.3829466808
 C          1.3810374795        0.0121915842        1.2512354798
 C          0.2023776795       -0.5798035645        1.6769473515
 C         -0.4445060304       -0.0577995714        2.7945890901
 C          0.0807842498        1.0280891603        3.4680495772
 C          1.2541138399        1.6214206790        3.0345371455
 C          1.9031027997        1.1138697759        1.9157220968
 N          3.1059384597        1.6784311046        1.4618441152
 S          3.3035524496        1.9735279802       -0.1816414756
 O          4.3585729598        2.9666126099       -0.2319517883
 O          2.0560723396        2.3495083987       -0.8027529965
 C          3.9393690694        0.4432654384       -0.8297157616
 C          5.1675233294        0.0176273394       -0.3619256005
 C          5.6905001992       -1.1724700419       -0.8401057674
 C          4.9799479690       -1.9112940343       -1.7745579754
 C          3.7503733390       -1.4670755453       -2.2356071865
 C          3.2196364192       -0.2760593540       -1.7627218196
 H          2.2517788692        0.0833197353       -2.0782735605
 H          3.1926287789       -2.0425284072       -2.9576784149
 H          5.3842619688       -2.8401645553       -2.1453321930
 H          6.6458537891       -1.5218169011       -0.4831120166
 H          5.6869966995        0.6261918013        0.3593246378
 H          3.4264306199        2.4667250560        2.0064549131
 H          1.6638036400        2.4734185803        3.5562846932
 H         -0.4284408300        1.4212310827        4.3352597562
 H         -1.3699274004       -0.5116256904        3.1206957314
 C         -0.4205447908       -1.7432424063        0.9429283846
 H         -0.9370413608       -2.3671004343        1.6857507763
 C          0.5828811091       -2.5980585584        0.1991518868
 C          1.5718338490       -3.4073981865        0.9823700289
 C          0.4602473489       -4.0903678283        0.2454732108
 H          0.6988859487       -4.6530911907       -0.6443458877
 H         -0.3522978912       -4.5091321867        0.8211378920
 H          2.5773487390       -3.4982280976        0.6009663590
 H          1.5112776591       -3.3591037536        2.0591195088
 H          0.9178190190       -2.1600797910       -0.7320298644
 O         -3.1668497407       -1.9208128043        1.5799022453
