  62
        -98.93577773
 C         -2.7865833115       -1.0761529765       -0.1952161620
 C         -2.5235914491        0.0020764832       -1.0756697051
 C         -3.2970463384        1.2314835189       -0.8342666943
 C         -4.1802547865        1.2754246459        0.1785673467
 C         -4.9725601072        2.4857354685        0.5774763888
 C         -4.2240479021        3.3161650208        1.6298870612
 C         -2.7681765693        3.6091296274        1.2667279329
 H         -2.3520733052        4.2257181547        2.0663300733
 H         -2.2068028274        2.6716789027        1.2600889642
 C         -2.5812164582        4.3229567432       -0.0794694612
 H         -3.5222610519        4.7770852603       -0.3916512380
 H         -1.8582720096        5.1309771767        0.0501840232
 C         -2.0533543169        3.4293968694       -1.2032682006
 H         -1.1593061419        2.9019520815       -0.8612355919
 H         -1.7561043285        4.0709480463       -2.0370567905
 C         -3.0426448515        2.3939749825       -1.7529552719
 H         -3.9801867136        2.8856592338       -2.0195244054
 H         -2.6068667376        1.9683256683       -2.6617087412
 H         -4.7611407232        4.2554445305        1.7734631628
 H         -4.2369304645        2.7689416766        2.5753179537
 H         -5.1712958063        3.0911946636       -0.3047042733
 H         -5.9218040592        2.1514065209        0.9992985699
 O         -4.4143300424        0.2184137396        0.9972545311
 C         -3.7260280650       -0.9705073839        0.8356221405
 O         -4.0379084361       -1.8558139276        1.6568559592
 H         -0.0745408955       -0.6276191194       -0.5383863596
 C          0.1585289948       -1.3825916374        0.1985729666
 C         -0.7642124709       -2.3889057971        0.4493810860
 C         -0.4437835696       -3.3642527145        1.3854193969
 C          0.7698485454       -3.3282254523        2.0506013746
 C          1.6833729691       -2.3191223842        1.8036464178
 C          1.3724391239       -1.3390050078        0.8695028898
 N          2.2761535564       -0.2812513814        0.6207145836
 S          3.8248038180       -0.6976327818        0.0857315395
 O          3.7513456511       -1.3364264578       -1.2113136880
 O          4.4844688508       -1.4497818602        1.1218863496
 C          4.5578694555        0.9184896579       -0.0563138324
 C          5.0243773102        1.5313483226        1.0907213792
 C          5.5655765027        2.8034077958        0.9970030750
 C          5.6286993113        3.4380527001       -0.2348197094
 C          5.1559906721        2.8098538670       -1.3770562366
 C          4.6125766620        1.5375409942       -1.2899614482
 H          4.2391876985        1.0094420900       -2.1529952697
 H          5.2073177870        3.3051050702       -2.3333898078
 H          6.0504964846        4.4281969984       -0.3057740982
 H          5.9352354279        3.2952170225        1.8823021814
 H          4.9605730582        0.9968188710        2.0239489673
 H          1.8830359981        0.3681729094       -0.0497264304
 H          2.6339370389       -2.2880789325        2.3098639180
 H          1.0067921955       -4.0932226966        2.7746154823
 H         -1.1566980040       -4.1479031463        1.5975134468
 C         -2.0788344142       -2.4189206422       -0.2881244496
 H         -2.7370298097       -3.1261657225        0.2404216743
 C         -1.9419517517       -2.9168220225       -1.7219209102
 C         -0.6353977931       -3.0514765483       -2.4393639663
 C         -1.3683818281       -4.2770480693       -1.9887560096
 H         -1.8408681336       -4.9035327189       -2.7299694213
 H         -0.9616571289       -4.8172272298       -1.1468103183
 H         -0.6177586851       -2.8119291870       -3.4917948081
 H          0.2722404268       -2.7795712788       -1.9222840107
 H         -2.7903151935       -2.6224448136       -2.3315768110
 O         -1.6861597562       -0.0319718525       -2.0153257500
