  62
        -98.93758429
 C          2.2572541274        0.7827913435        0.0759048895
 C          3.5742422880        1.1990311402        0.4004458394
 C          4.6628832213        0.5074373189       -0.2977139702
 C          4.3745166448       -0.4643289892       -1.1818694067
 C          5.3704423613       -1.2448393022       -1.9962339226
 C          5.9826684771       -2.4415926463       -1.2553078502
 C          6.9863849254       -2.0839692053       -0.1583675639
 H          7.4941938630       -3.0081696206        0.1244053119
 H          7.7406936078       -1.4089884593       -0.5638070554
 C          6.3576989803       -1.4626633331        1.0967267041
 H          5.2831924886       -1.6605038444        1.1013416452
 H          6.7741928648       -1.9391942703        1.9870114470
 C          6.5843977008        0.0423019214        1.2404219876
 H          7.6503488878        0.2417759274        1.3700874205
 H          6.0658250027        0.3831473820        2.1400925938
 C          6.0726454141        0.8735227405        0.0566648278
 H          6.0793825023        1.9265018764        0.3485541599
 H          6.7268979978        0.7444168287       -0.8052158941
 H          5.1730755531       -3.0385769477       -0.8290015233
 H          6.4934901201       -3.0574803669       -1.9990766392
 H          4.8314061515       -1.6194793342       -2.8691140588
 H          6.1651688147       -0.5805454902       -2.3369306466
 O          3.0994119533       -0.8483854075       -1.4537984499
 C          2.0111794038       -0.2595494150       -0.8186990700
 O          0.9158686591       -0.7574027443       -1.1413060613
 H         -1.5744230379        1.1620032422        0.1731228251
 C         -1.2112989942        0.4456921088        0.8895260210
 C          0.1142430662        0.4620782734        1.2931982418
 C          0.5477018111       -0.4971828532        2.2050997495
 C         -0.3188917566       -1.4611562552        2.6803882931
 C         -1.6376502681       -1.4838712219        2.2628318212
 C         -2.0857095960       -0.5214019993        1.3655417558
 N         -3.4390480867       -0.5002820505        0.9842405185
 S         -3.9422229142        0.0669703436       -0.5201044147
 O         -3.3752605914       -0.7217992865       -1.5909350966
 O         -3.7296482360        1.4908839917       -0.5842461748
 C         -5.6889134948       -0.2679530353       -0.3743851639
 C         -6.4614612006        0.5855315869        0.3905278948
 C         -7.8132291757        0.3177842471        0.5353140033
 C         -8.3678258031       -0.7931062169       -0.0831843767
 C         -7.5809965594       -1.6391540239       -0.8498220829
 C         -6.2276663009       -1.3774157650       -0.9973520931
 H         -5.5782951895       -2.0024192842       -1.5893430025
 H         -8.0149833746       -2.5002050613       -1.3321649938
 H         -9.4203713207       -0.9992131214        0.0307177419
 H         -8.4288128478        0.9746637188        1.1283992716
 H         -5.9885463793        1.4403174188        0.8449607399
 H         -3.9123708832       -1.3667705720        1.2027665294
 H         -2.3143428151       -2.2417123788        2.6277417690
 H          0.0345264632       -2.2062634447        3.3775111236
 H          1.5818294679       -0.4848145322        2.5231417872
 C          1.1092191174        1.4757562552        0.7867961935
 H          1.5798649172        1.9546207674        1.6627033512
 C          0.4655793278        2.5926673563       -0.0207795764
 C          1.2360377187        3.3514663437       -1.0581552589
 C          0.1236704450        2.4370897068       -1.4711637633
 H         -0.8016531806        2.8680435744       -1.8265737943
 H          0.3700180165        1.4994719153       -1.9454021417
 H          2.2512836345        3.0398916759       -1.2566517249
 H          1.0820487312        4.4173408638       -1.1332665206
 H         -0.2314576181        3.1735464032        0.5764250868
 O          3.8266397200        2.1050815618        1.2380555391
