  62
        -98.94118258
 C         -1.4663541617       -1.5890779291       -0.2038779593
 C         -2.6084498514       -1.2509001380        0.5630094107
 C         -3.4596123907       -0.1549716376        0.0616047003
 C         -3.1113191704        0.4596748217       -1.0836961599
 C         -3.7985880397        1.6105875819       -1.7695926403
 C         -3.5393812087        2.9642625020       -1.0851541408
 C         -3.5679662586        2.9317180726        0.4409428992
 H         -2.8544067391        2.1874562622        0.7995629894
 H         -3.2327769979        3.9081768925        0.8004155088
 C         -4.9384684587        2.6598938837        1.0565962894
 H         -4.8266927386        2.7191198340        2.1422372094
 H         -5.6304979482        3.4481550841        0.7510993492
 C         -5.5673128997        1.3083388640        0.7155266400
 H         -6.4291975897        1.1745946248        1.3759940101
 H         -5.9541754498        1.3038041539       -0.2999022600
 C         -4.6568540405        0.1053889235        0.9429878103
 H         -5.2653933911       -0.8058383561        0.8925087007
 H         -4.2720985404        0.1373389136        1.9685580103
 H         -2.5522329585        3.3170680512       -1.3931021210
 H         -4.2773557082        3.6807856424       -1.4494534010
 H         -3.4010794297        1.6529513713       -2.7862684103
 H         -4.8637829298        1.4102794126       -1.8427474201
 O         -1.9981096907        0.1057152807       -1.7859308699
 C         -1.1507602613       -0.9096377497       -1.3792391696
 O         -0.1851604115       -1.0934139307       -2.1460079696
 O         -2.9120807617       -1.8417120774        1.6334194409
 C         -0.5624537624       -2.6927986995        0.3236513510
 C          0.6987468481       -2.0405335302        0.8323739407
 C          0.7640830285       -1.5903088497        2.1478208105
 C          1.8698007490       -0.8959706603        2.6039421702
 C          2.9212758291       -0.6105742014        1.7503204400
 C          2.8565911687       -1.0438916518        0.4328301001
 C          1.7664629982       -1.7774652212       -0.0123904795
 H          1.7272411879       -2.0958850916       -1.0418418794
 N          3.8843826489       -0.6882181028       -0.4624501501
 S          4.2751890300        0.9419127669       -0.4860477607
 O          4.6896044501        1.2250365361       -1.8426498108
 O          5.2634389903        1.2061160366        0.5315236291
 C          2.7698409306        1.8188425681       -0.0878503709
 C          1.6367713604        1.5774175186       -0.8390440207
 C          0.4671147909        2.2464277695       -0.5175334609
 C          0.4470217416        3.1426427499        0.5393602088
 C          1.5950133618        3.3790930394        1.2794447686
 C          2.7672223013        2.7103889685        0.9661247388
 H          3.6799174315        2.8566990381        1.5207165186
 H          1.5779376423        4.0770691797        2.1008954284
 H         -0.4696626881        3.6552040606        0.7858461987
 H         -0.4235661093        2.0488739499       -1.0928532407
 H          1.6565613898        0.8687633183       -1.6524641405
 H          3.7186205286       -1.0198115430       -1.4024719799
 H          3.7819470095       -0.0497425818        2.0776553397
 H          1.9090255093       -0.5606468400        3.6289362700
 H         -0.0732390916       -1.7766673789        2.8051150107
 H         -1.0974419926       -3.1211980188        1.1811469012
 C         -0.3184022032       -3.7873683001       -0.6934074386
 C          0.2635612959       -5.0902302603       -0.2353057982
 C         -1.1710807441       -5.0188490295       -0.6617943181
 H         -1.4547856944       -5.4725876396       -1.5996429579
 H         -1.9342916740       -5.0797443287        0.1001275620
 H          0.9676472355       -5.5959637210       -0.8781899480
 H          0.4746371959       -5.1974269300        0.8179180819
 H         -0.0265627131       -3.4188611306       -1.6687722088
