  62
        -98.93897611
 C          2.2732431321        0.0147994886        0.2488050314
 C          3.2961372018        0.7767958718       -0.3678055611
 C          4.4994402855        0.0321429892       -0.7716161495
 C          4.5564238459       -1.2971110557       -0.5783608702
 C          5.7391818204       -2.1638332292       -0.8973405823
 C          6.6803723798       -2.2852414774        0.3094815395
 C          7.0366332675       -0.9451253671        0.9531233578
 H          6.1362989818       -0.5113990403        1.3944521648
 H          7.7279507385       -1.1522298925        1.7729107294
 C          7.6708957882        0.0716811703       -0.0061297213
 H          8.5272334092        0.5333909501        0.4899410301
 H          8.0472515329       -0.4402640489       -0.8924562329
 C          6.7389763029        1.2067774726       -0.4341697320
 H          7.3422269841        1.9742865127       -0.9262890951
 H          6.2871435426        1.6629567240        0.4501978699
 C          5.6150499314        0.8177028906       -1.4026631400
 H          5.1596732770        1.7413243605       -1.7712000564
 H          6.0329671955        0.2770247856       -2.2539942204
 H          7.5926569876       -2.7897819547       -0.0139219707
 H          6.1960613114       -2.9091209302        1.0643426346
 H          6.2731048150       -1.7426860242       -1.7469151518
 H          5.3747426364       -3.1572432499       -1.1641227493
 O          3.5420220700       -2.0029225633       -0.0160461753
 C          2.3937640914       -1.3683006879        0.4213325179
 O          1.5595082493       -2.1348116010        0.9457876143
 O          3.2348717835        2.0165929436       -0.5822835160
 C          0.9771431304        0.6157807023        0.7677883297
 C         -0.0381841915        0.8329617867       -0.3291729686
 C          0.2169780696        1.6763874999       -1.4056114998
 C         -0.7507205041        1.8907463446       -2.3696058954
 C         -1.9944949874        1.2927448526       -2.2680829416
 C         -2.2568292706        0.4444797543       -1.1990662990
 C         -1.2752863786        0.2114756370       -0.2459662533
 H         -1.4908621667       -0.4610965053        0.5721029112
 N         -3.5026511191       -0.1897724301       -1.0692342075
 S         -4.1285691579       -0.3838068378        0.4877380614
 O         -3.8560009350        0.7943237349        1.2792785718
 O         -3.6599406026       -1.6364494910        1.0260224842
 C         -5.8722239682       -0.4942049707        0.1300213789
 C         -6.6416407717        0.6531328573        0.1803116400
 C         -7.9902763653        0.5699917240       -0.1280831284
 C         -8.5431603939       -0.6515695236       -0.4823276377
 C         -7.7585100296       -1.7944670079       -0.5274345939
 C         -6.4092619958       -1.7186731735       -0.2197252176
 H         -5.7623139967       -2.5804759202       -0.2321307194
 H         -8.1924075698       -2.7430123086       -0.7997967759
 H         -9.5929965965       -0.7139107684       -0.7214988395
 H         -8.6034306849        1.4558859001       -0.0902001840
 H         -6.1705876521        1.5784651053        0.4707751901
 H         -4.1954843783        0.1628079580       -1.7153858179
 H         -2.7543083616        1.4755159045       -3.0128491697
 H         -0.5395944945        2.5449863292       -3.2020759549
 H          1.1792756385        2.1591664455       -1.4764873523
 H          0.5576830252       -0.1337654727        1.4537591590
 C          1.1761957556        1.9076156794        1.5402076840
 C          0.0625072785        2.3985290946        2.4136820378
 C          1.3190381475        1.8615642072        3.0298583724
 H          1.9974378454        2.5547248855        3.5044440281
 H          1.2789085362        0.8927000258        3.5071440004
 H         -0.1203787643        3.4610174908        2.4645548679
 H         -0.8350750261        1.7986016089        2.4674703935
 H          1.7580542035        2.6441327205        1.0021655104
