  62
        -98.94313739
 C         -2.1100051173       -0.4484863137       -0.1834025284
 C         -2.4296903057        0.6500645626        0.6486795610
 C         -2.1908350305        1.9911877185        0.0901265520
 C         -1.7062291240        2.1078263238       -1.1579888053
 C         -1.4257495543        3.3598703710       -1.9514702616
 C         -0.7632446487        4.5354041140       -1.2229554350
 C          0.2475892060        4.1438784529       -0.1350569383
 H          0.4804764887        3.0781120640       -0.1872600883
 H          1.1805889972        4.6858261504       -0.3023368326
 C         -0.2398342337        4.4709906458        1.2779185075
 H          0.6259507071        4.5145736390        1.9432343319
 H         -0.7081468990        5.4583950536        1.2758604141
 C         -1.2075855762        3.4504440059        1.8734083232
 H         -1.5345021605        3.8210746332        2.8485260292
 H         -0.6709857359        2.5131946172        2.0484290653
 C         -2.4495489544        3.1413789076        1.0193027154
 H         -3.2478436349        2.8132480386        1.6909768087
 H         -2.7887683406        4.0256639090        0.4843332524
 H         -1.5302356997        5.1694124709       -0.7800940885
 H         -0.2618460631        5.1346218062       -1.9849597422
 H         -2.3687365817        3.6994842534       -2.3905181901
 H         -0.7854763762        3.0353561228       -2.7752630942
 O         -1.4298291852        1.0212489533       -1.9331533383
 C         -1.5908086925       -0.2748325294       -1.4640500570
 O         -1.2440749785       -1.1557670634       -2.2734207650
 O         -2.9052466916        0.5151502388        1.8088019650
 C         -2.2443399976       -1.8560148359        0.3709726689
 C         -0.8655668579       -2.4570620406        0.5072411976
 C         -0.5081574703       -3.7008366029        0.0042351241
 C          0.7882424714       -4.1659874821        0.1469712589
 C          1.7523999264       -3.4012578259        0.7773805432
 C          1.4027363327       -2.1585305875        1.2943871178
 C          0.0989477801       -1.7075972832        1.1712132059
 H         -0.1638898481       -0.7431764384        1.5813485250
 N          2.3529733838       -1.3478773666        1.9473784845
 S          2.5825490257        0.2169994018        1.3958653111
 O          3.7573609168        0.6851800469        2.0982911689
 O          1.3803685129        0.9871881034        1.5720369763
 C          2.9523413670        0.0164610083       -0.3347989703
 C          1.9020858566       -0.0956392940       -1.2216563146
 C          2.1695963601       -0.3511333803       -2.5565542802
 C          3.4828236285       -0.4846557530       -2.9802390103
 C          4.5301983986       -0.3616207397       -2.0785908552
 C          4.2660287957       -0.1167388523       -0.7407081510
 H          5.0484302475       -0.0140986447       -0.0061343611
 H          5.5498506918       -0.4624381190       -2.4141206081
 H          3.6887330845       -0.6857715572       -4.0197231489
 H          1.3410615549       -0.4558272633       -3.2398237483
 H          0.8912686211        0.0125603425       -0.8617838141
 H          3.2506747714       -1.7951821325        2.0725307855
 H          2.7660026917       -3.7598967396        0.8735221974
 H          1.0540734240       -5.1334027402       -0.2508288739
 H         -1.2420062017       -4.3036137458       -0.5045696367
 H         -2.6609137775       -1.7309750465        1.3817998212
 C         -3.2012125002       -2.6886667661       -0.4535036464
 C         -3.9331080591       -3.8345607561        0.1770795350
 C         -4.6711217545       -2.5815163157       -0.1836615135
 H         -5.3517516051       -2.6039790732       -1.0214149463
 H         -4.9828666067       -1.9219335764        0.6132770592
 H         -4.1117428966       -4.7204894767       -0.4132257929
 H         -3.7491998358       -4.0299952331        1.2227689121
 H         -2.8896232921       -2.7838871324       -1.4871023385
