  62
        -98.93715642
 C         -2.0620982305       -0.8720422785        0.5807467248
 C         -2.0466713859       -0.0986676436       -0.6039661572
 C         -2.0909231572        1.3578343586       -0.4212288396
 C         -2.0865803473        1.8734281690        0.8206166872
 C         -2.0374855961        3.3328538838        1.1910433421
 C         -3.2544027405        4.1873256894        0.7862787499
 C         -3.1042981692        4.9032098144       -0.5616651921
 H         -2.0418081548        5.0223529735       -0.7773007382
 H         -3.5225943073        5.9079156118       -0.4738899467
 C         -3.7953647859        4.2327508337       -1.7525582471
 H         -3.4084427312        4.6910434008       -2.6650867646
 H         -4.8665265663        4.4414797310       -1.7070379137
 C         -3.6283717127        2.7163692548       -1.8514606567
 H         -3.9911767680        2.3959849383       -2.8299880465
 H         -4.2646284848        2.2273679817       -1.1101422134
 C         -2.1856869972        2.2125359403       -1.6510520145
 H         -1.4864003413        3.0453078119       -1.5894819181
 H         -1.8874979956        1.5791223497       -2.4890556523
 H         -3.3786815797        4.9443270922        1.5622257993
 H         -4.1504106336        3.5674713406        0.7925573442
 H         -1.1287696780        3.7644530535        0.7640594123
 H         -1.9334487114        3.3511141593        2.2781379806
 O         -2.0793473696        1.0925226869        1.9375364681
 C         -2.0639371764       -0.2887267928        1.8458411564
 O         -2.0561618180       -0.8786607648        2.9475101239
 O         -1.9944621958       -0.5984752571       -1.7587604674
 C         -1.9557291965       -2.3842567951        0.4944056319
 C         -0.6770404118       -2.7384314607       -0.2273352990
 C         -0.5949056509       -3.6982346827       -1.2272412768
 C          0.6066122506       -3.9296281671       -1.8753684339
 C          1.7393291823       -3.2060119433       -1.5527005267
 C          1.6716214240       -2.2584911718       -0.5365938022
 C          0.4762744471       -2.0505914227        0.1290362018
 H          0.4352183179       -1.3108304963        0.9167750910
 N          2.8055506065       -1.5166780363       -0.1601699045
 S          2.5773152011        0.0690666356        0.3756567635
 O          2.2503508790        0.0413352085        1.7806230917
 O          1.6548627315        0.7717310885       -0.4872812017
 C          4.2301170808        0.7062630492        0.1628855322
 C          4.5359238871        1.4354208677       -0.9706556755
 C          5.8325384376        1.8944856132       -1.1432036959
 C          6.7967810996        1.6147680978       -0.1865257224
 C          6.4747131910        0.8821163838        0.9464407377
 C          5.1799574779        0.4216336591        1.1258665827
 H          4.8790126271       -0.1426862733        1.9930497106
 H          7.2258867636        0.6689156412        1.6896363123
 H          7.8050253752        1.9722251426       -0.3234857763
 H          6.0844252928        2.4667971606       -2.0213272720
 H          3.7506687585        1.6333059971       -1.6826987429
 H          3.5524563149       -1.5725962194       -0.8395695365
 H          2.6675790941       -3.3693665724       -2.0786638607
 H          0.6558852975       -4.6718102145       -2.6576882132
 H         -1.4741708988       -4.2532842098       -1.5104393887
 H         -1.8781709973       -2.7448360551        1.5311640327
 C         -3.1959686814       -2.9758862639       -0.1414250109
 C         -3.6421895581       -4.3603971129        0.2185795461
 C         -4.4170074819       -3.1733404871        0.7039116936
 H         -5.3838698171       -2.9720344501        0.2678777670
 H         -4.3436439365       -2.9027394831        1.7474893840
 H         -4.0823202658       -4.9766246289       -0.5507649904
 H         -3.0492741078       -4.9050472761        0.9377331760
 H         -3.3408107833       -2.6357631729       -1.1602883459
