  62
        -98.94569405
 C          0.9821599200        1.1516526094       -0.2537399298
 C          2.0317051103        1.2279940493        0.6997922498
 C          2.9223240003        0.0650150693        0.7887595895
 C          2.6980323200       -0.9923179507       -0.0119834204
 C          3.5652951899       -2.2153565007       -0.0788126907
 C          4.6651724995       -2.0584690808       -1.1385153911
 C          5.4405335196       -0.7450283208       -1.0371292814
 H          4.7679542596        0.0847391492       -1.2663710311
 H          6.2079438693       -0.7594119708       -1.8142370817
 C          6.0995295301       -0.5001322708        0.3274805984
 H          7.1195222001       -0.1452127809        0.1650978080
 H          6.1677225403       -1.4378562708        0.8800143584
 C          5.3955349705        0.5474961792        1.1918491786
 H          5.2440803003        1.4602193192        0.6100027687
 H          6.0552875108        0.7984032592        2.0267725884
 C          4.0457271806        0.1245743193        1.7853854991
 H          3.7552814409        0.8813364993        2.5197259592
 H          4.1548664008       -0.8314095907        2.3009403391
 H          4.2026834092       -2.1058916208       -2.1271054409
 H          5.3564287995       -2.8982256808       -1.0462226513
 H          4.0115333802       -2.3919065307        0.8978279591
 H          2.9402166298       -3.0678452507       -0.3464561705
 O          1.6752008096       -1.0394580006       -0.8994653100
 C          0.7896604596        0.0192753194       -1.0456759997
 O         -0.0891996907       -0.1888263806       -1.9044205294
 H         -1.9922987703        0.6280888495       -0.8091099987
 C         -2.1277724599        1.1978208795        0.0966018013
 C         -1.1775857797        2.1361001695        0.4774707410
 C         -1.3738885493        2.8510168395        1.6539632910
 C         -2.4978613990        2.6354206695        2.4306947514
 C         -3.4392830692        1.6953662696        2.0545400318
 C         -3.2488751196        0.9702122596        0.8820613117
 N         -4.1872919198        0.0076599896        0.4923113921
 S         -3.8022117102       -1.2761705604       -0.4949312181
 O         -3.7047002007       -0.8423130604       -1.8650838281
 O         -4.8538837802       -2.2386228504       -0.2271471077
 C         -2.2570901400       -1.9653075005        0.0738540114
 C         -1.9035177696       -1.8849874405        1.4056880312
 C         -0.7349390694       -2.4992720105        1.8264350308
 C          0.0460241102       -3.1968909606        0.9191639906
 C         -0.3266745203       -3.2751775606       -0.4129276193
 C         -1.4860355204       -2.6500999605       -0.8423030989
 H         -1.7966527808       -2.6658351305       -1.8744485588
 H          0.2839511395       -3.8086970006       -1.1238238395
 H          0.9520471503       -3.6777147706        1.2536427902
 H         -0.4376321691       -2.4313722705        2.8607759407
 H         -2.5245348193       -1.3440607105        2.1010745315
 H         -4.8911494996       -0.2267477304        1.1758662223
 H         -4.3152571190        1.5190173196        2.6597747021
 H         -2.6392623287        3.1987014695        3.3403892615
 H         -0.6281582391        3.5682825595        1.9634081808
 C          0.0655114800        2.3607628794       -0.3491193395
 H          0.6284865502        3.1816160694        0.1163356103
 C         -0.2763032505        2.7651238594       -1.7684250294
 C         -0.6970883005        4.1783323194       -2.0352064392
 C          0.6405974093        3.6926938294       -2.5053787897
 H          0.7928568189        3.5335807294       -3.5623842397
 H          1.5208303495        4.0430350194       -1.9858762700
 H         -0.7220887302        4.8599210294       -1.1983231392
 H         -1.4682127608        4.3547172295       -2.7693599589
 H         -0.7543377507        1.9819594494       -2.3423538392
 O          2.2185446406        2.2318746093        1.4381695598
