  62
        -98.94904106
 C          0.8920723557        1.3515603517        0.2382953799
 C          1.4448765081        0.2754783823        0.9694212105
 C          2.2705680302       -0.6656534962        0.2016301157
 C          2.3938690609       -0.4967273454       -1.1277196850
 C          3.2134815227       -1.3747104736       -2.0285107393
 C          4.6422076073       -0.8362177578       -2.1851632112
 C          5.3192350152       -0.4966408018       -0.8572347873
 H          6.3319821554       -0.1580627837       -1.0859554183
 H          4.7950179869        0.3438390068       -0.3966457774
 C          5.3815006989       -1.6630720199        0.1386642146
 H          6.3827492035       -1.6983836312        0.5730129919
 H          5.2224834044       -2.6059865785       -0.3856911160
 C          4.3948871863       -1.5562600117        1.3027894891
 H          4.4848562677       -0.5715440296        1.7679109443
 H          4.6750661214       -2.3001864223        2.0531868758
 C          2.9186309495       -1.7920302148        0.9574604823
 H          2.8129643986       -2.7346879169        0.4155280101
 H          2.3690129392       -1.8668966407        1.9002205613
 H          5.2348799452       -1.5807163034       -2.7200116920
 H          4.6048734218        0.0699863132       -2.7941839003
 H          3.2364844288       -2.3838980013       -1.6209456047
 H          2.7304055148       -1.4019479193       -3.0072312459
 O          1.8184875514        0.5297537935       -1.8030949380
 C          1.0549629465        1.4784685990       -1.1419547477
 O          0.5955524847        2.3738111536       -1.8769266408
 H         -1.3783993582        0.1811379846        0.3555704304
 C         -1.9288624332        1.0713032484        0.0876070141
 C         -1.3723911821        2.3175634534        0.3479241362
 C         -2.1019421608        3.4516509706        0.0178127988
 C         -3.3367107685        3.3321425608       -0.5971724361
 C         -3.8572518351        2.0904404273       -0.9108961662
 C         -3.1416608351        0.9485721292       -0.5671543595
 N         -3.6324286925       -0.3327085992       -0.8571356999
 S         -2.5686724746       -1.5745252296       -1.2146892136
 O         -1.3855083285       -1.1124453723       -1.9025252028
 O         -3.3812748348       -2.5365951991       -1.9322046740
 C         -2.1520225030       -2.2642346735        0.3719199874
 C         -3.1708354461       -2.4964227771        1.2750523008
 C         -2.8626409167       -3.0701199519        2.4976518005
 C         -1.5501060558       -3.4082757983        2.7910031786
 C         -0.5403740657       -3.1748336190        1.8709561746
 C         -0.8410538692       -2.5949392116        0.6486912768
 H         -0.0809976320       -2.3778710999       -0.0870038204
 H          0.4804653322       -3.4345225140        2.0998575197
 H         -1.3096306222       -3.8550947851        3.7427512399
 H         -3.6445898368       -3.2520499282        3.2171765087
 H         -4.1780683157       -2.2240295560        1.0078509742
 H         -4.4565017551       -0.3562611787       -1.4398118847
 H         -4.8034535448        2.0009627993       -1.4223774417
 H         -3.8917326259        4.2209263864       -0.8567089339
 H         -1.6981465745        4.4290100596        0.2252917154
 C          0.0064841992        2.3524586693        0.9592729510
 H         -0.0618496512        1.9911329872        1.9963936027
 C          0.6371055745        3.7287165953        0.9597875796
 C          0.3615787540        4.6872086103        2.0787575086
 C          1.7054361849        4.0346505863        1.9651043634
 H          2.5483228195        4.6340322316        1.6552008838
 H          1.9589169482        3.2560660192        2.6696665385
 H         -0.2954105372        4.3570518398        2.8689104200
 H          0.2838539300        5.7391205139        1.8489258547
 H          0.7621519160        4.1272875459       -0.0409315949
 O          1.2509850852        0.1049786999        2.2038462081
