  62
        -98.93770741
 C         -1.7975399601       -0.4382047594        0.3238647890
 C         -2.9330303099       -0.4355237499        1.1644052054
 C         -4.2432333959       -0.5750498321        0.5049395009
 C         -4.2979182033       -0.6891639635       -0.8355408413
 C         -5.4737225382       -0.8775036164       -1.7717296073
 C         -6.9032493151       -0.6443731265       -1.2896696925
 C         -7.2366361462        0.8089273861       -0.9539428515
 H         -8.2420008808        0.8394454918       -0.5282527087
 H         -7.2510821761        1.3854695211       -1.8823707093
 C         -6.2709957470        1.5032233268        0.0032091840
 H         -6.6233572685        2.5281039624        0.1487774786
 H         -5.2820186034        1.5662116269       -0.4555698423
 C         -6.1390819795        0.8577907133        1.3812916886
 H         -7.1264154828        0.7560705841        1.8359514818
 H         -5.5515353644        1.5350790958        2.0073351162
 C         -5.4431553651       -0.5141642242        1.4057948353
 H         -6.1400055658       -1.3157864669        1.1734021928
 H         -5.0727496900       -0.6856225679        2.4207835060
 H         -7.1271909047       -1.2912332179       -0.4465900181
 H         -7.5607473332       -0.9520224434       -2.1073744374
 H         -5.2757607925       -0.2282465413       -2.6305236448
 H         -5.3969956652       -1.9063115346       -2.1404139359
 O         -3.1695930833       -0.6960217220       -1.6050610624
 C         -1.9030659333       -0.5653655224       -1.0598363384
 O         -0.9796015749       -0.5770038057       -1.8944934512
 H          2.2218122101        0.0058829314        0.2175083973
 C          1.6418415718        0.9024515017        0.0753175204
 C          0.2913111441        0.9189289320        0.3879365894
 C         -0.4184626024        2.1034398551        0.2064769700
 C          0.2006997770        3.2296829730       -0.2980097504
 C          1.5483432167        3.2074975071       -0.6117378319
 C          2.2714920081        2.0382119253       -0.4168710264
 N          3.6372710381        1.9801492899       -0.7297703883
 S          4.6933527855        1.1733795550        0.2856987964
 O          4.2724439563        1.2518364400        1.6648994818
 O          5.9910685309        1.7415643192       -0.0135934979
 C          4.6720473237       -0.5172374951       -0.2711400101
 C          4.5977946912       -0.7787495118       -1.6248727925
 C          4.6308394073       -2.0959233349       -2.0538913232
 C          4.7468832204       -3.1231714262       -1.1295905580
 C          4.8267882937       -2.8435885074        0.2257398292
 C          4.7892033749       -1.5281992101        0.6619666828
 H          4.8365460185       -1.2663845961        1.7070836622
 H          4.9170501003       -3.6434824426        0.9436902725
 H          4.7734244291       -4.1472948944       -1.4671706513
 H          4.5652753341       -2.3173582316       -3.1070376124
 H          4.5059447668        0.0421491573       -2.3161955627
 H          4.0337250623        2.8438333465       -1.0705586477
 H          2.0351155036        4.0873876433       -1.0044488802
 H         -0.3676070238        4.1364634329       -0.4420395658
 H         -1.4694664714        2.1272299154        0.4608690115
 C         -0.4201863824       -0.2913208575        0.9409682718
 H         -0.5958668847       -0.1191369541        2.0140787457
 C          0.3621342747       -1.5781201967        0.7779520500
 C          1.3724758381       -1.9908825955        1.8048027397
 C          0.0683404742       -2.7212503625        1.7011519144
 H          0.0679009335       -3.7227643996        1.2984246998
 H         -0.6745644484       -2.5583089844        2.4683677210
 H          1.5261036862       -1.3345259481        2.6484688542
 H          2.2673131312       -2.4927501688        1.4690914393
 H          0.5632991843       -1.8111775907       -0.2619065018
 O         -2.8588791152       -0.3220374504        2.4183761169
