  62
        -98.93370685
 C         -2.0647572439       -0.3310788244       -0.4544763235
 C         -2.8568031183        0.7507721652       -0.0014537589
 C         -4.2214240791        0.4191704147        0.4589822129
 C         -4.6373478057       -0.8598176855        0.4515455440
 C         -5.9380737360       -1.4910905631        0.9031014791
 C         -7.1715882812       -0.6336252902        1.1741747171
 C         -7.7711894223        0.0330553686       -0.0635131894
 H         -8.2124001646       -0.7416457171       -0.6958469459
 H         -8.5767583586        0.6950206532        0.2616458259
 C         -6.7923435918        0.8275008581       -0.9245716827
 H         -7.3500499483        1.2407759146       -1.7695012945
 H         -6.0376326852        0.1545478266       -1.3370576908
 C         -6.0919447918        1.9867670873       -0.2185327389
 H         -6.8365550212        2.6473046608        0.2297956411
 H         -5.5536003999        2.5578997852       -0.9797344584
 C         -5.0752617923        1.5864098554        0.8643869811
 H         -4.3925394612        2.4280563671        1.0127590929
 H         -5.5655287533        1.3918281526        1.8150459260
 H         -6.9555970595        0.1063632308        1.9390723976
 H         -7.9304566540       -1.3034630645        1.5877897047
 H         -5.6958639086       -2.0472674457        1.8155347182
 H         -6.1832393867       -2.2404744552        0.1436557291
 O         -3.8250805282       -1.8749365765        0.0306483177
 C         -2.5457389945       -1.6414007669       -0.4351085231
 O         -1.9418741304       -2.6688392437       -0.8059994789
 O         -2.4642399294        1.9443450907        0.0362157535
 C         -0.6523580738       -0.1648571589       -0.9882505039
 C          0.3644966826       -0.2283386158        0.1233231470
 C          0.2047555471        0.5077873890        1.2940063199
 C          1.1463038151        0.4346075296        2.3036469491
 C          2.2754967475       -0.3527966249        2.1570005696
 C          2.4492547521       -1.0833589061        0.9886422799
 C          1.4904573107       -1.0268024872       -0.0140583568
 H          1.6374594008       -1.6122708166       -0.9089135543
 N          3.5986923504       -1.8770770411        0.7889230442
 S          4.6265119193       -1.4076227167       -0.4488110864
 O          3.9219322036       -1.4444081324       -1.7032653143
 O          5.7871555175       -2.2600279700       -0.3284881634
 C          5.0617084745        0.2721741729       -0.0325540669
 C          6.2035915427        0.5053988252        0.7088986018
 C          6.4986019009        1.8031350322        1.0946407052
 C          5.6448553713        2.8383923795        0.7442907427
 C          4.5004583086        2.5873197861        0.0028617247
 C          4.2027502865        1.2921203676       -0.3901986111
 H          3.3251525902        1.0617867877       -0.9712171900
 H          3.8351558516        3.3905689812       -0.2708099537
 H          5.8725758281        3.8477375346        1.0487183879
 H          7.3892094730        2.0025324728        1.6685935464
 H          6.8404992901       -0.3288731471        0.9552870828
 H          4.1387971988       -2.0235391167        1.6309143545
 H          3.0146196848       -0.4052739719        2.9423143793
 H          1.0057710193        1.0051386558        3.2089772645
 H         -0.6610696519        1.1433406912        1.3977445374
 H         -0.4838236843       -1.0424419947       -1.6330072003
 C         -0.4853414208        1.0761711622       -1.8577770365
 C          0.4251527634        2.2087917720       -1.4996853890
 C          0.7939051638        1.2794129718       -2.6147768625
 H          0.7407902971        1.6409266439       -3.6308106261
 H          1.5877936718        0.5639067810       -2.4503519993
 H          0.0984609458        3.2075094712       -1.7456603180
 H          0.9744060335        2.1463628720       -0.5732190016
 H         -1.4018131062        1.3388527686       -2.3748461529
