  62
        -98.94422521
 C         -1.9842279901       -1.2385741255       -0.0033332247
 C         -2.3733490468       -0.2501919458       -0.9396140764
 C         -3.8011973386        0.0947133170       -0.9425714649
 C         -4.6471358591       -0.5368511247       -0.1088685601
 C         -6.1323247790       -0.3145801905       -0.0165961749
 C         -6.5318593868        0.8664558467        0.8784430962
 C         -6.2442330568        2.2503974435        0.2949983190
 H         -6.6720539925        2.3178589949       -0.7057672989
 H         -6.7656407388        2.9768728483        0.9214477741
 C         -4.7549980600        2.6202558830        0.2463464207
 H         -4.6193560010        3.6369214753        0.6222128878
 H         -4.1921166622        1.9584525108        0.9088528245
 C         -4.1329190421        2.5676543488       -1.1492122424
 H         -3.0704891582        2.8093491648       -1.0591316864
 H         -4.5975121383        3.3239613480       -1.7859238853
 C         -4.2520791272        1.2044608176       -1.8434033536
 H         -5.2777422280        1.0377089020       -2.1718125084
 H         -3.5991458643        1.2083246417       -2.7196453235
 H         -6.0234887915        0.7639839804        1.8399516661
 H         -7.6061811340        0.7887137054        1.0606844622
 H         -6.5572029605       -1.2268273511        0.4076908051
 H         -6.5446302100       -0.1711540061       -1.0156865604
 O         -4.2352662528       -1.4957159856        0.7625045144
 C         -2.8991298077       -1.8455638923        0.8592928067
 O         -2.6542589846       -2.7012239905        1.7332111591
 O         -1.5811906858        0.3129264945       -1.7392432582
 C         -0.5276343497       -1.6524518281        0.1282153376
 C          0.2681725469       -0.4607585960        0.5997420332
 C          0.1195816526       -0.0321002847        1.9161499483
 C          0.8121748460        1.0675781186        2.3867288870
 C          1.6662706423        1.7682638087        1.5517073346
 C          1.8152931870        1.3515933811        0.2370184237
 C          1.1275914391        0.2396061006       -0.2310773629
 H          1.2504737170       -0.0645033662       -1.2583541591
 N          2.7031265687        2.0521168099       -0.6113832041
 S          4.3238308154        1.8951467006       -0.2145203731
 O          4.5697061713        2.5800060803        1.0284833692
 O          5.0609462928        2.3658736333       -1.3648670757
 C          4.5515719210        0.1385481493       -0.0045333875
 C          4.8703070627       -0.6263238705       -1.1088815327
 C          4.9580291709       -2.0017680273       -0.9690727224
 C          4.7121876232       -2.5866631264        0.2637667131
 C          4.3899858497       -1.8048037847        1.3623225616
 C          4.3073087747       -0.4279180554        1.2304385724
 H          4.0634614874        0.2133602930        2.0613929033
 H          4.1978340423       -2.2619165614        2.3198373563
 H          4.7728037212       -3.6585700118        0.3687074246
 H          5.2120838822       -2.6134173145       -1.8198466254
 H          5.0559084374       -0.1310995521       -2.0486403702
 H          2.5729751206        1.8220068017       -1.5868985757
 H          2.2256694804        2.6213035421        1.9005189205
 H          0.6861513976        1.3848853138        3.4109374139
 H         -0.5538142169       -0.5753628192        2.5653888357
 H         -0.5015008221       -2.4121130418        0.9209347195
 C         -0.0054248680       -2.2658355271       -1.1540206985
 C          1.2857408817       -3.0265531322       -1.1295017637
 C         -0.0113468289       -3.7554317246       -1.3084562696
 H         -0.2413633380       -4.1708294009       -2.2781556449
 H         -0.3900312372       -4.3406999932       -0.4833560976
 H          1.9505436819       -2.9440683177       -1.9757236681
 H          1.7932967954       -3.1121733939       -0.1807376796
 H         -0.2338892515       -1.6749467868       -2.0327689120
