  62
        -98.94453105
 C         -1.2690631498       -1.7726854450       -0.6831398165
 C         -2.4587976915       -1.6532976337        0.0816558979
 C         -3.3959013625       -0.6031636154       -0.3249825775
 C         -3.1211047361        0.1491902420       -1.4053058772
 C         -3.9549930676        1.2849945434       -1.9308121744
 C         -3.6629058671        2.6180173028       -1.2273997093
 C         -4.2171401269        2.7339637003        0.1933207473
 H         -4.1497361831        3.7862208078        0.4770282693
 H         -5.2732895600        2.4605849173        0.1964066457
 C         -3.4611134234        1.8969138674        1.2351087283
 H         -3.2785181565        2.5047058703        2.1249798564
 H         -2.4793891295        1.6238457177        0.8380411771
 C         -4.1955229401        0.6355967481        1.6931391274
 H         -3.5467611258        0.0993641490        2.3908261586
 H         -5.1059112923        0.9183602840        2.2270435120
 C         -4.5724520827       -0.3299364721        0.5616241079
 H         -4.8811044029       -1.2779665821        1.0092123615
 H         -5.4030947503        0.0726572095       -0.0174457035
 H         -4.1014132702        3.4140759678       -1.8341942091
 H         -2.5803580862        2.7714611524       -1.2038745815
 H         -3.7097848371        1.3918756096       -2.9897049560
 H         -5.0144131207        1.0439761385       -1.8394667515
 O         -2.0163024451       -0.0509861855       -2.1649439338
 C         -1.0254393093       -0.9534119555       -1.7859829840
 O         -0.0264570753       -0.9226944528       -2.5282340471
 H          0.4381401542       -0.1317772361        0.1204552187
 C          0.7325216969       -0.6959058852        0.9894596524
 C          0.4691296626       -2.0563914146        1.0403015091
 C          0.8274745558       -2.7609153678        2.1832496329
 C          1.4365287891       -2.1102710665        3.2425933891
 C          1.6835752403       -0.7501824310        3.1922556751
 C          1.3125410353       -0.0322573444        2.0591806081
 N          1.4817435068        1.3525082229        2.0014069545
 S          1.4665076567        2.2508314825        0.5983394690
 O          1.8102359927        3.5830188890        1.0493509551
 O          0.2023356807        2.1213170053       -0.0808460537
 C          2.8169581701        1.6116462885       -0.3748523147
 C          4.0921958847        1.8970698633        0.0784938948
 C          5.1824776091        1.4139164668       -0.6239217353
 C          4.9818762710        0.6555045214       -1.7682937017
 C          3.6984849107        0.3827364150       -2.2119534729
 C          2.6004229443        0.8604395128       -1.5107685304
 H          1.5965946328        0.6416107226       -1.8414064435
 H          3.5318111035       -0.2049236946       -3.1003684012
 H          5.8289855805        0.2769834763       -2.3182123517
 H          6.1815766571        1.6288316873       -0.2806344351
 H          4.2040132663        2.5069342328        0.9601490497
 H          2.0073614854        1.7769072901        2.7485512227
 H          2.1371329163       -0.2413571984        4.0286411047
 H          1.7107165833       -2.6667288942        4.1259536763
 H          0.6026599092       -3.8149743540        2.2513918668
 C         -0.2256038553       -2.7246421844       -0.1238672992
 H         -0.7926517296       -3.5779254954        0.2830754809
 C          0.7484416201       -3.2690306982       -1.1557193498
 C          2.1554039322       -2.7754299416       -1.2823320795
 C          1.8922626685       -4.1455135118       -0.7382957986
 H          2.1325421852       -5.0000649429       -1.3523245724
 H          2.0485405069       -4.3006566946        0.3177968217
 H          2.4855756183       -2.0060185529       -0.6008558481
 H          2.5618468325       -2.6760089719       -2.2763362286
 H          0.2478837096       -3.5315197161       -2.0814316968
 O         -2.7138426084       -2.3894735019        1.0730528093
