  62
        -98.94431584
 C         -1.1395313231       -1.2478509791        0.8343552523
 C         -2.3027974519       -1.3813869165        0.0379806718
 C         -3.2688790655       -0.2748089008        0.1263452390
 C         -2.9870598328        0.7945151674        0.8919898933
 C         -3.8644550045        2.0053950662        1.0259282720
 C         -3.5318099960        3.0739527085       -0.0250916813
 C         -3.4034753391        2.5297579532       -1.4471209173
 H         -3.1731589041        3.3748590723       -2.0997126695
 H         -2.5550461395        1.8429845225       -1.4912918261
 C         -4.6583406924        1.8148727660       -1.9663780696
 H         -5.5205814756        2.0903840887       -1.3578040459
 H         -4.8599785931        2.1525611396       -2.9851878584
 C         -4.5420084429        0.2909079989       -2.0154560231
 H         -3.6308249596        0.0074359369       -2.5480600265
 H         -5.3892217107       -0.0971398406       -2.5873212180
 C         -4.5449567534       -0.4173951024       -0.6553415997
 H         -4.6629966430       -1.4889261826       -0.8411152455
 H         -5.3977104333       -0.0757751508       -0.0649785291
 H         -2.5847673960        3.5424883356        0.2459493067
 H         -4.3103398660        3.8385841732        0.0040651905
 H         -4.9046698586        1.6995808564        0.9274904718
 H         -3.7145702940        2.4274671193        2.0209629834
 O         -1.8431385401        0.9032796826        1.6157500876
 C         -0.9018945577       -0.1111853510        1.6130793464
 O          0.0873089682        0.1064651198        2.3403998586
 O         -2.5478187551       -2.3674417293       -0.7044442416
 C         -0.0407136859       -2.3016702016        0.8437336162
 C          0.7681802430       -2.1143601030       -0.4164786293
 C          0.4466036940       -2.7349950689       -1.6179010050
 C          1.1758612263       -2.4570426278       -2.7604837490
 C          2.2281865426       -1.5597970062       -2.7307702541
 C          2.5593746376       -0.9366211492       -1.5313708279
 C          1.8331668363       -1.2224958573       -0.3851912355
 H          2.0927732208       -0.7394898036        0.5454342984
 N          3.6218749364       -0.0314866256       -1.4765991407
 S          3.9670454469        0.9371699207       -0.1768876532
 O          4.9578205630        1.8607515440       -0.6909972366
 O          4.3892387733        0.1368668047        0.9464940121
 C          2.4934835426        1.8525167512        0.2386335081
 C          2.3335220551        2.2422660453        1.5521943903
 C          1.2385990599        3.0159003103        1.8971349504
 C          0.3242956894        3.3840738590        0.9247282026
 C          0.4927852301        2.9789517442       -0.3897097024
 C          1.5900391373        2.2095074518       -0.7415783943
 H          1.7382722377        1.8815059673       -1.7579614805
 H         -0.2285525596        3.2572360745       -1.1422728554
 H         -0.5284492257        3.9850905617        1.1997427293
 H          1.0968351226        3.3166508523        2.9225364752
 H          3.0578846797        1.9186721956        2.2824366312
 H          4.0128047578        0.2802787866       -2.3508576023
 H          2.7919180033       -1.3411108377       -3.6245008662
 H          0.9171173200       -2.9415973704       -3.6898002290
 H         -0.3918580692       -3.4104820354       -1.6593626515
 H          0.6077859836       -2.0511589052        1.6943893893
 C         -0.5584832743       -3.7112108842        1.0331435057
 C          0.4101458713       -4.7906452043        1.4087332480
 C         -0.5892122401       -4.2979728943        2.4108832050
 H         -1.4134710372       -4.9422276654        2.6780235154
 H         -0.2341597283       -3.6835371491        3.2258495125
 H          0.2749231896       -5.7753678781        0.9884875911
 H          1.4438126467       -4.5076322337        1.5428602105
 H         -1.3729636007       -3.9701277777        0.3702114504
