  62
        -98.93899563
 C          1.5493817002        1.0896326098        0.0119188904
 C          2.6943024001        0.8645649896       -0.7900449197
 C          3.8933758601        0.3965097797       -0.0764642497
 C          3.8401120703        0.1957143001        1.2522241503
 C          4.9675899304       -0.3371723997        2.0870845604
 C          4.9079533703       -1.8676898997        2.1897054308
 C          4.7373290002       -2.5715650801        0.8433179610
 H          4.7407705301       -3.6467408300        1.0357116013
 H          3.7560663701       -2.3230113201        0.4318638310
 C          5.8199964101       -2.2341023404       -0.1913144292
 H          6.6894904001       -1.8053532903        0.3084037606
 H          6.1460421200       -3.1593006505       -0.6713313190
 C          5.3602595300       -1.2920767906       -1.3055320094
 H          4.4350861699       -1.6710163607       -1.7474568792
 H          6.1224670699       -1.2954390309       -2.0893872695
 C          5.1341419601        0.1678004295       -0.8931446498
 H          6.0153725401        0.5427448396       -0.3686738300
 H          5.0029877100        0.7532297492       -1.8078764899
 H          5.8229175804       -2.2174194296        2.6714243208
 H          4.0630750304       -2.1396626095        2.8266369910
 H          5.9148813803       -0.0288411799        1.6491108602
 H          4.8850013905        0.0883331505        3.0885916103
 O          2.7197937804        0.4120813503        1.9870982104
 C          1.5503501203        0.8484315402        1.3890474804
 O          0.5943066904        0.9895836004        2.1762784605
 H         -1.3717243498       -0.2623195100        0.5138049410
 C         -1.2391608399       -0.4561796802       -0.5398713889
 C         -0.4191989300        0.3836312795       -1.2829961292
 C         -0.2033181601        0.0903144092       -2.6240921392
 C         -0.7948298102       -1.0208263210       -3.1993913388
 C         -1.6381355402       -1.8350395407       -2.4635939585
 C         -1.8660007700       -1.5452421504       -1.1249843886
 N         -2.7570960500       -2.3119676701       -0.3322613983
 S         -4.2503645099       -1.5617850900       -0.1042692383
 O         -5.0676534999       -2.5332459698        0.5876001920
 O         -4.7756195900       -1.0934970504       -1.3701515384
 C         -3.9070798598       -0.1753106398        0.9512280513
 C         -3.6674931496       -0.4029318894        2.2915569113
 C         -3.3637033395        0.6749443508        3.1072781410
 C         -3.3026029295        1.9518553607        2.5706590006
 C         -3.5538203297        2.1637520903        1.2236790506
 C         -3.8599545298        1.0910422001        0.4025016409
 H         -4.0550863999        1.2070963698       -0.6517548191
 H         -3.5041727197        3.1593368702        0.8113221703
 H         -3.0529900794        2.7868894308        3.2060808004
 H         -3.1646735294        0.5172072211        4.1549763210
 H         -3.7216926096       -1.4116612793        2.6670686416
 H         -2.9243630100       -3.2369260702       -0.7072578980
 H         -2.1210295103       -2.6865465608       -2.9202729382
 H         -0.6083795103       -1.2475307712       -4.2384581788
 H          0.4527867198        0.7168978090       -3.2058032594
 C          0.2269671701        1.5525154897       -0.5801299696
 H         -0.4074697898        1.8090533300        0.2789531504
 C          0.3625060401        2.7776743295       -1.4594215000
 C         -0.8808247799        3.5173382194       -1.8499666200
 C          0.0787660802        4.1266213596       -0.8738049603
 H          0.6798488902        4.9637121795       -1.1958638806
 H         -0.2072944997        4.1690612699        0.1669680397
 H         -0.9418340100        3.9369943591       -2.8423534401
 H         -1.8194978799        3.1393318995       -1.4733302198
 H          1.1625674900        2.7092335092       -2.1843771400
 O          2.7347575500        1.0450178192       -2.0349591298
