  62
        -98.93727018
 C         -2.2973936200       -1.1110519992        0.0727403270
 C         -2.2191815754        0.0262643965       -0.7680606749
 C         -2.8150634983        1.2619066657       -0.2334213861
 C         -3.3284273647        1.2703120149        1.0090425027
 C         -3.9896609730        2.4496887265        1.6599723742
 C         -5.5021390105        2.4569762577        1.3972966683
 C         -5.8743984947        2.2628635410       -0.0725622752
 H         -5.5821815736        1.2571944128       -0.3833682410
 H         -6.9628493708        2.3176179037       -0.1420646755
 C         -5.2483170004        3.2895574588       -1.0265767153
 H         -4.9073790938        4.1588440627       -0.4632168287
 H         -6.0157862777        3.6344305894       -1.7226139854
 C         -4.0928024427        2.7483128127       -1.8702969668
 H         -4.4017410247        1.8234351913       -2.3637911481
 H         -3.8720768478        3.4790180175       -2.6528634747
 C         -2.7844432014        2.4781044725       -1.1164708545
 H         -2.0050675224        2.2874179517       -1.8602564233
 H         -2.4990812842        3.3619764593       -0.5420443142
 H         -5.9093356723        3.4038143321        1.7563838932
 H         -5.9570080559        1.6496454464        1.9758178876
 H         -3.8154672787        2.3884403046        2.7356487914
 H         -3.5388504783        3.3654500161        1.2821258455
 O         -3.3407892246        0.1728295116        1.8081995484
 C         -2.8378501140       -1.0354522416        1.3598685180
 O         -2.9299527731       -1.9651077224        2.1867891245
 H          0.2280963014       -0.7724656738       -0.9754914633
 C          0.5905192932       -1.5840779284       -0.3610226209
 C         -0.2945837159       -2.5709473322        0.0518333511
 C          0.1894817137       -3.6064457260        0.8412870323
 C          1.5238216739       -3.6478896318        1.2091152432
 C          2.4005628599       -2.6586480949        0.8004686006
 C          1.9245055932       -1.6197360768        0.0124078444
 N          2.8104353945       -0.5909385874       -0.3987789908
 S          3.2380041674        0.4864363005        0.8351989028
 O          3.6605680174       -0.2742714418        1.9827750937
 O          2.1680980999        1.4391904907        1.0536870173
 C          4.6393256652        1.3011756901        0.0953308426
 C          5.8566902975        0.6480418060        0.1002931394
 C          6.9455204285        1.2566009690       -0.5027556064
 C          6.7989592675        2.5000626693       -1.0997296358
 C          5.5704038928        3.1427432375       -1.0971058769
 C          4.4770595198        2.5387020116       -0.4958729684
 H          3.5050636400        3.0046609059       -0.4634434880
 H          5.4589298162        4.1099388558       -1.5603351948
 H          7.6478149624        2.9724354117       -1.5684131763
 H          7.9027738970        0.7607811251       -0.5058168778
 H          5.9243094890       -0.3130736528        0.5821218401
 H          2.3903104740       -0.0381130007       -1.1369738753
 H          3.4349820305       -2.6671752310        1.1008543262
 H          1.8836459262       -4.4569987046        1.8264034444
 H         -0.4924824935       -4.3705804304        1.1852456872
 C         -1.7532276711       -2.4779644228       -0.3164720603
 H         -2.2992648084       -3.1951573793        0.3165252221
 C         -2.0361973697       -2.8450165476       -1.7670253427
 C         -0.9733330239       -2.9859074653       -2.8110334874
 C         -1.6579007823       -4.2048976432       -2.2755154358
 H         -2.3536787760       -4.7333035494       -2.9092804387
 H         -1.0930339553       -4.8406273854       -1.6102493498
 H         -1.2089557975       -2.6506105294       -3.8094853273
 H          0.0519241811       -2.8113920613       -2.5251777855
 H         -2.9881187821       -2.4481119341       -2.1045354299
 O         -1.6800210394        0.0353782495       -1.9057285421
