  62
        -98.93995889
 C          0.8890141197        1.7050985095        0.6320249635
 C          1.6845186058        1.6845479373       -0.5365030096
 C          2.8483476019        0.7795520473       -0.5167225712
 C          3.0703401043        0.0227686935        0.5716822800
 C          4.1731617830       -0.9785939128        0.7777704089
 C          3.7031398714       -2.3903510973        0.3907486724
 C          3.8801064585       -2.7509412714       -1.0830754751
 H          4.9425450286       -2.8836172264       -1.2978186527
 H          3.3895630856       -3.7133537426       -1.2430886557
 C          3.3039270927       -1.7364000610       -2.0738020821
 H          3.1483147106       -2.2471951356       -3.0258696200
 H          2.3260758225       -1.3966212894       -1.7267571498
 C          4.2268668539       -0.5301873497       -2.3039501826
 H          5.2089706980       -0.7481179563       -1.8844584649
 H          4.3741875322       -0.3866787831       -3.3764537220
 C          3.7137598285        0.8061324521       -1.7470417045
 H          4.5678529508        1.4654674899       -1.5584650313
 H          3.0985295871        1.3031640873       -2.5038764350
 H          2.6479675824       -2.4700104589        0.6591394071
 H          4.2555085926       -3.1190672489        0.9871460590
 H          5.0614556848       -0.6899047150        0.2238053412
 H          4.4062334726       -0.9690009711        1.8445677012
 O          2.2481737957        0.0386009130        1.6580929877
 C          1.1463308105        0.8708834336        1.7185766165
 O          0.4843449659        0.7770747082        2.7728669466
 H         -1.3118995174        0.2063872763        0.3003615133
 C         -1.7242285766        0.9120567389       -0.4063598540
 C         -1.3163035378        2.2398276647       -0.3551380702
 C         -1.8523976438        3.1366259235       -1.2688617199
 C         -2.7675088558        2.7057427863       -2.2141143002
 C         -3.1861935528        1.3889364204       -2.2477975856
 C         -2.6629894065        0.4843078965       -1.3296623812
 N         -3.0665913246       -0.8594183403       -1.3297567139
 S         -3.3174922516       -1.6625154970        0.1199501779
 O         -4.3220117034       -2.6577978415       -0.1935965022
 O         -3.6424218629       -0.7446389872        1.1852526335
 C         -1.7881440665       -2.5113587431        0.4489820132
 C         -1.4230789343       -3.5278318043       -0.4128763026
 C         -0.2736803506       -4.2531190005       -0.1475703182
 C          0.4872981990       -3.9544758581        0.9729816689
 C          0.1145041370       -2.9238122136        1.8222392080
 C         -1.0351210518       -2.1942772058        1.5612580959
 H         -1.3466225900       -1.3866223163        2.2067044921
 H          0.7105258334       -2.6730066340        2.6860553061
 H          1.3731907696       -4.5309620201        1.1895071595
 H          0.0232381783       -5.0513344304       -0.8084481327
 H         -2.0526507850       -3.7407505335       -1.2606561774
 H         -3.7844026677       -1.0836696107       -2.0036645905
 H         -3.9106470781        1.0585203813       -2.9767254694
 H         -3.1696990248        3.4095247757       -2.9270936186
 H         -1.5493239983        4.1702611824       -1.2478804083
 C         -0.3178831412        2.6222148778        0.7108479789
 H         -0.7862746577        2.4262897082        1.6872338876
 C          0.1125563330        4.0727491184        0.6589947177
 C         -0.7424418599        5.1322381560        1.2843694055
 C          0.5552754272        4.7419158694        1.9239900543
 H          1.3826115349        5.4341514704        1.8794646702
 H          0.5241400430        4.1571692784        2.8322026381
 H         -0.8053422188        6.0965197278        0.8031188165
 H         -1.6579342698        4.8172514874        1.7624589967
 H          0.6503936577        4.3167259164       -0.2495823507
 O          1.4412371542        2.3892694360       -1.5510161550
