  62
        -98.93725786
 C         -2.4870950395       -1.0658333751       -0.1263583160
 C         -3.6290743884       -0.9315128860        0.6962879496
 C         -4.6855151581       -0.0275186423        0.2098986370
 C         -4.5121883145        0.6050304971       -0.9638180339
 C         -5.4315079096        1.6055457330       -1.6080610414
 C         -5.0254948992        3.0395861285       -1.2274988812
 C         -5.6421011109        3.5608290811        0.0700090173
 H         -5.1751609059        4.5241907333        0.2873224766
 H         -6.7076966523        3.7414222248       -0.0863087799
 C         -5.4745782212        2.6478308991        1.2874638551
 H         -4.4582792769        2.2501724154        1.3118174769
 H         -5.6040186358        3.2576874909        2.1837548737
 C         -6.4886524719        1.4946586836        1.3210991813
 H         -6.9790036001        1.4729193148        2.2965981904
 H         -7.2708640637        1.6867389815        0.5869195318
 C         -5.8980590639        0.0953349484        1.0921163707
 H         -6.6813100342       -0.5631861298        0.7018224605
 H         -5.5851134409       -0.3285191092        2.0516048105
 H         -3.9352015921        3.0707918016       -1.1561184366
 H         -5.3192047999        3.7128306777       -2.0353668810
 H         -6.4656727436        1.4057980784       -1.3438824995
 H         -5.3139543321        1.4857949193       -2.6870556922
 O         -3.3959445309        0.4449259440       -1.7267290669
 C         -2.3575861180       -0.3819949402       -1.3346678215
 O         -1.4032801717       -0.4233034743       -2.1337442449
 O         -3.7580168030       -1.5350329505        1.7960558968
 C         -1.3591354091       -1.9748262563        0.3291696808
 C         -0.1071829390       -1.1562657375        0.5251019775
 C         -0.1212111913       -0.1388878270        1.4767447200
 C          0.9924693029        0.6505603052        1.6848916616
 C          2.1460429628        0.4471101013        0.9465819114
 C          2.1742611171       -0.5680004226        0.0015665542
 C          1.0541640086       -1.3668853390       -0.1992861413
 H          1.0922860106       -2.1483086131       -0.9419926591
 N          3.3344468252       -0.7722096852       -0.7608628401
 S          4.8261070216       -0.8087584744        0.0010209359
 O          5.6769591675       -1.5842012982       -0.8750493735
 O          4.7135529683       -1.2750226938        1.3635333512
 C          5.3661835685        0.8877624494       -0.0218186526
 C          5.7384675725        1.5080235994        1.1546487795
 C          6.1684606385        2.8252084384        1.1111811034
 C          6.2193912420        3.4946084940       -0.1018403174
 C          5.8446952083        2.8564643100       -1.2750342268
 C          5.4145982257        1.5397763950       -1.2383851714
 H          5.1170449009        1.0089365542       -2.1274079691
 H          5.8854200802        3.3803575915       -2.2165192007
 H          6.5534483650        4.5196833900       -0.1336187714
 H          6.4606552136        3.3230089498        2.0219009037
 H          5.6783571672        0.9495973102        2.0753775692
 H          3.2521529817       -1.5048553782       -1.4500791735
 H          3.0174274279        1.0624412161        1.0997483023
 H          0.9641328397        1.4353124505        2.4256903481
 H         -1.0237876203        0.0229624830        2.0503835591
 H         -1.6717582835       -2.3572434084        1.3115973351
 C         -1.1954290615       -3.1446916051       -0.6170949738
 C         -0.5260827740       -4.3997268331       -0.1444043608
 C         -2.0047408346       -4.3842669592       -0.3874084148
 H         -2.3925017055       -4.9127552771       -1.2453478633
 H         -2.6652674253       -4.3956360681        0.4671284650
 H          0.1011764454       -4.9435697156       -0.8348416497
 H         -0.1787738291       -4.4253051354        0.8775403991
 H         -1.0397145254       -2.8365300955       -1.6449053638
