  62
        -98.94068052
 C          1.6142005701        0.6341406802        0.3889149399
 C          2.7343723199        0.9194682700       -0.4307221004
 C          3.6751559498       -0.1964521800       -0.6343401505
 C          3.4022053998       -1.4037808100       -0.1099297904
 C          4.2926687097       -2.6074304700       -0.2118739205
 C          5.2605965500       -2.6857674400        0.9769935693
 C          5.9999301402       -1.3778483100        1.2591919490
 H          5.2795587503       -0.6246609599        1.5869161091
 H          6.6759122104       -1.5607370000        2.0974050389
 C          6.7988690099       -0.8299656001        0.0684023588
 H          7.7810101200       -0.5106073802        0.4234859685
 H          6.9614323597       -1.6213766002       -0.6641422012
 C          6.1611257198        0.3768561798       -0.6225810412
 H          6.9029506797        0.8128993498       -1.2969718814
 H          5.9122409000        1.1362147399        0.1232451788
 C          4.9045243196        0.0845686298       -1.4522021908
 H          4.6767185695        0.9811259098       -2.0361571809
 H          5.1038660594       -0.7353974302       -2.1449336708
 H          5.9839384599       -3.4795573900        0.7817571192
 H          4.6920584002       -2.9562922299        1.8698626095
 H          4.8505253395       -2.5623447601       -1.1451672806
 H          3.6652193297       -3.5002203100       -0.2165008803
 O          2.2850295900       -1.6555601399        0.6202393199
 C          1.3815927701       -0.6452468698        0.9002282901
 O          0.4171408203       -1.0035681497        1.6059712003
 O          2.9560657098        2.0317031600       -0.9723041105
 C          0.5556584902        1.6655903202        0.7455488301
 C         -0.5618465800        1.6237197802       -0.2645556196
 C         -0.3041847704        1.7364545001       -1.6279508197
 C         -1.3402160806        1.6805851401       -2.5412578294
 C         -2.6448052505        1.4927654502       -2.1172567591
 C         -2.9116879602        1.3727479903       -0.7589267490
 C         -1.8708140000        1.4496745703        0.1575747907
 H         -2.0930081297        1.3527566104        1.2094236008
 N         -4.2273402701        1.1931123604       -0.2988210587
 S         -4.5682038799       -0.0052376695        0.8209581415
 O         -6.0122980099       -0.0877864494        0.8253792418
 O         -3.9462314495        0.3076635806        2.0808171413
 C         -3.8866584301       -1.4913818796        0.1089653614
 C         -2.5695466101       -1.8338623996        0.3379013511
 C         -2.0557284903       -2.9577435597       -0.2914902889
 C         -2.8572663405       -3.7150058797       -1.1306291286
 C         -4.1803022406       -3.3583945497       -1.3469604484
 C         -4.6992944104       -2.2343580296       -0.7270359583
 H         -5.7236213204       -1.9253824396       -0.8598414081
 H         -4.8043834408       -3.9509068497       -1.9964072082
 H         -2.4488424507       -4.5879827598       -1.6150813987
 H         -1.0250956703       -3.2228895097       -0.1132018691
 H         -1.9507405299       -1.2440927196        0.9958542009
 H         -4.9213532303        1.1860304904       -1.0330666585
 H         -3.4516564907        1.4419088202       -2.8324070089
 H         -1.1300402809        1.7755873700       -3.5958310095
 H          0.7144573396        1.8739155500       -1.9582456100
 H          0.1361309804        1.3307833303        1.7085972002
 C          1.1178949303        3.0631075402        0.9647245099
 C          0.8169487502        4.2286594202        0.0760852998
 C          0.2081874305        4.1566064803        1.4420382700
 H          0.5627310107        4.8294620604        2.2082349398
 H         -0.8455678195        3.9278492304        1.5093870803
 H          1.6121617602        4.9360320701       -0.1028675404
 H          0.1742202800        4.0726888501       -0.7756569300
 H          2.1118958004        3.0372861902        1.3988531596
