  62
        -98.94620295
 C         -1.5851552404       -1.5916901897       -0.2384401100
 C         -1.4396502403       -0.2374597896       -0.6264300097
 C         -2.6888927702        0.5258014606       -0.7434372688
 C         -3.8674239102       -0.0763582992       -0.5030886883
 C         -5.2242866202        0.5678188811       -0.5950261773
 C         -5.6337973193        1.3400724909        0.6668660231
 C         -4.8942646989        2.6595451407        0.8928234130
 H         -4.9535782093        3.2666030709       -0.0109548868
 H         -5.4295724083        3.1945741006        1.6798202635
 C         -3.4265617487        2.4999115703        1.3144925421
 H         -3.2153450381        3.1655927300        2.1542891822
 H         -3.2574146587        1.4794854302        1.6659926618
 C         -2.4123466093        2.8186285604        0.2158767916
 H         -2.4792165792        3.8768114304       -0.0455246581
 H         -1.4102459091        2.6255339701        0.6067200110
 C         -2.5851296402        1.9866742707       -1.0610157985
 H         -3.4617182304        2.3205555610       -1.6155554579
 H         -1.6973451705        2.1250582007       -1.6822848090
 H         -6.7015309593        1.5561623611        0.5837980038
 H         -5.4936587289        0.6906213006        1.5341556729
 H         -5.2566142205        1.2339722613       -1.4575498371
 H         -5.9425822204       -0.2396928887       -0.7523782671
 O         -3.9636227303       -1.3871522893       -0.1509816785
 C         -2.8299264103       -2.1671915495        0.0136113006
 O         -3.0594101703       -3.3381709496        0.3801473904
 O         -0.3321690204        0.3070562802       -0.8642833602
 C         -0.3503845604       -2.4576044800       -0.0582828609
 C          0.5391245703       -1.8185107004        0.9794540287
 C          0.0476930411       -1.6769399206        2.2756005691
 C          0.8068227418       -1.0715348910        3.2573564188
 C          2.0680668817       -0.5816567612        2.9640007482
 C          2.5669367709       -0.7187010510        1.6747437178
 C          1.8075850002       -1.3421680306        0.6929955381
 H          2.2242544196       -1.4393729104       -0.2946002221
 N          3.8475165608       -0.2470534811        1.3539581572
 S          4.1758966801        0.4194202492       -0.1400167528
 O          4.2523137493       -0.6133225806       -1.1430921431
 O          5.3994618903        1.1657651089        0.0765193367
 C          2.8624265301        1.5650583595       -0.5167824718
 C          2.3486460793        1.5990143500       -1.7950406714
 C          1.3851292193        2.5435130202       -2.1067487207
 C          0.9508998801        3.4311604101       -1.1370182202
 C          1.4719253808        3.3801745496        0.1460683595
 C          2.4406962308        2.4427626294        0.4612678987
 H          2.8657125514        2.3882718590        1.4506228484
 H          1.1238259114        4.0670604895        0.9014416699
 H          0.1954707301        4.1624878903       -1.3790465396
 H          0.9710337588        2.5759631405       -3.1021574904
 H          2.7041124388        0.8818382801       -2.5177435218
 H          4.3215714013        0.2479201286        2.0947259071
 H          2.6620714622       -0.1022824515        3.7272195279
 H          0.4131635624       -0.9721159212        4.2577280590
 H         -0.9435214889       -2.0492533505        2.4983895695
 H         -0.7043401404       -3.4208834700        0.3357790091
 C          0.3342907288       -2.6954213098       -1.3869259414
 C          1.2493142084       -3.8697452699       -1.5545123622
 C         -0.0877474819       -3.8578718395       -2.2316546514
 H         -0.1234026625       -3.7309710492       -3.3033032814
 H         -0.8650428518       -4.4994532694       -1.8422170711
 H          2.1370804581       -3.7487427099       -2.1570428027
 H          1.3818565388       -4.5236734201       -0.7056588124
 H          0.5903652886       -1.7754751097       -1.8999613013
