  62
        -98.94365404
 C         -2.6244936458        0.1621164856        0.2281858046
 C         -2.1706483082        0.9489383900       -0.8596785674
 C         -1.7202451608        2.3102077394       -0.5242643833
 C         -1.7277202427        2.7189400396        0.7561308578
 C         -1.2578124801        4.0612686384        1.2368238653
 C          0.2260478121        4.0361418673        1.6256214479
 C          1.1394615271        3.4209286052        0.5645439373
 H          2.1658542507        3.5149064252        0.9280813750
 H          0.9328896002        2.3505289272        0.4843961144
 C          1.0298927241        4.0663650055       -0.8235722918
 H          0.5745987494        5.0545822982       -0.7388335354
 H          2.0370509870        4.2034470804       -1.2229426359
 C          0.2577758702        3.2350588208       -1.8501078133
 H          0.6421670809        2.2116267444       -1.8533898505
 H          0.4460641572        3.6584661850       -2.8410099309
 C         -1.2636522112        3.1831301219       -1.6593009363
 H         -1.6561736492        4.1965946208       -1.5454816130
 H         -1.6952914820        2.7456946919       -2.5645473715
 H          0.3339283548        3.4531825111        2.5432041432
 H          0.5437894709        5.0605894760        1.8309544645
 H         -1.8481778914        4.3343697664        2.1135384120
 H         -1.4257578089        4.7982141464        0.4535624905
 O         -2.1531529909        1.9319939768        1.7777113956
 C         -2.5896875671        0.6417784861        1.5401827227
 O         -2.9415377537        0.0256195418        2.5684736215
 O         -2.1419075694        0.5639992727       -2.0591362358
 C         -3.0824005151       -1.2813581595        0.0969884699
 C         -1.9118965838       -2.2260075952        0.2575915065
 C         -2.0632521425       -3.4472084705        0.9056337218
 C         -0.9787105653       -4.2853178369        1.0908210943
 C          0.2832178835       -3.9086670701        0.6664734937
 C          0.4425998250       -2.6937986520        0.0110136381
 C         -0.6570337576       -1.8800510268       -0.2168868078
 H         -0.5117430474       -0.9492599174       -0.7429213898
 N          1.7034036952       -2.2542166345       -0.4248213282
 S          2.0120756196       -0.5958819004       -0.2671469317
 O          1.4097830333       -0.0968268905        0.9479831213
 O          1.6427598346        0.0590948312       -1.4953417066
 C          3.7891293111       -0.6044121321       -0.1162510699
 C          4.5548048878       -0.6875927667       -1.2639988372
 C          5.9350176346       -0.7301459946       -1.1463658654
 C          6.5230658278       -0.6897339127        0.1092903684
 C          5.7417235309       -0.6031398142        1.2517846988
 C          4.3605671511       -0.5614441635        1.1412046326
 H          3.7117967781       -0.4853431991        1.9992576320
 H          6.2012785826       -0.5674291054        2.2263790661
 H          7.5973757800       -0.7223823257        0.1982461690
 H          6.5456619415       -0.7934024508       -2.0324608864
 H          4.0520230310       -0.7062440206       -2.2169129607
 H          2.4639512398       -2.8164628562       -0.0674501380
 H          1.1370072086       -4.5449924593        0.8432140851
 H         -1.1109332550       -5.2298440625        1.5962148533
 H         -3.0347613986       -3.7282792138        1.2832666960
 H         -3.7615933989       -1.4589685172        0.9438990429
 C         -3.8328200698       -1.5839176452       -1.1852273574
 C         -4.8788659407       -2.6563364990       -1.1940020815
 C         -5.2808951754       -1.2161214652       -1.2931705698
 H         -5.6446541277       -0.8385995765       -2.2365776752
 H         -5.7415421361       -0.7543654297       -0.4316572106
 H         -4.9682196867       -3.2767040336       -2.0723283846
 H         -5.0821765085       -3.1716456980       -0.2677809253
 H         -3.2244272010       -1.4644327024       -2.0721008458
