  62
        -98.94418430
 C         -1.6948212799       -1.2990511895        0.2562465495
 C         -1.2956731594       -0.2328785697       -0.5794141204
 C         -1.8388991893        1.0963889105       -0.2573467807
 C         -2.6630164396        1.2250361007        0.7965071090
 C         -3.3540412596        2.4716239209        1.2768282686
 C         -4.7453564993        2.6140111511        0.6354919581
 C         -4.7667612987        3.3487658910       -0.7041137220
 H         -5.7833532585        3.2766225911       -1.0973276424
 H         -4.5539388885        4.4064297509       -0.5356509920
 C         -3.7928378584        2.8140091107       -1.7565601316
 H         -4.1433121579        3.1444247107       -2.7361185418
 H         -3.8142168086        1.7228361907       -1.7542660015
 C         -2.3520177884        3.3053283804       -1.5512641711
 H         -2.3479154785        4.1119249705       -0.8186396712
 H         -1.9777288079        3.7324538103       -2.4839681010
 C         -1.3521082287        2.2202806503       -1.1309887506
 H         -0.9577534585        1.7263786101       -2.0250067604
 H         -0.4960222888        2.6872213402       -0.6294439203
 H         -5.3946030995        3.1539696212        1.3277041378
 H         -5.1611826695        1.6106863411        0.5126640380
 H         -2.7386608593        3.3466638707        1.0891532688
 H         -3.4760358400        2.3586587910        2.3563668186
 O         -3.0337527301        0.1670726908        1.5714764189
 C         -2.5430307403       -1.1047192793        1.3433946592
 O         -2.9306821607       -1.9659362891        2.1611832991
 O         -0.5134420790       -0.3844462399       -1.5560764801
 C         -1.1197398901       -2.6851508097        0.0290433699
 C          0.3881782300       -2.6076408599       -0.0057107296
 C          1.1701022902       -3.3318039902       -0.8972005592
 C          2.5475652702       -3.1931247704       -0.8965427787
 C          3.1710774800       -2.3154570805       -0.0285638385
 C          2.3979425498       -1.5958773602        0.8749407611
 C          1.0246946898       -1.7709688000        0.9024378506
 H          0.4406163296       -1.2057585698        1.6145902303
 N          2.9761197896       -0.6697330203        1.7692433513
 S          2.5442894600        0.9403172198        1.5822888110
 O          3.3174001098        1.6508929797        2.5793331112
 O          1.1138460700        1.0847113201        1.6628564704
 C          3.1450881707        1.3731777195       -0.0413199588
 C          4.3651425009        2.0152770093       -0.1407597784
 C          4.8748667514        2.2998437191       -1.3967976983
 C          4.1633316218        1.9295670991       -2.5283647685
 C          2.9438551516        1.2815449194       -2.4103682389
 C          2.4244730211        0.9955643596       -1.1564137191
 H          1.4745474909        0.4952040898       -1.0465160594
 H          2.3842698619        0.9892339794       -3.2844071891
 H          4.5601541022        2.1472562290       -3.5074433984
 H          5.8227646315        2.8051208389       -1.4891266780
 H          4.8793013406        2.2861193593        0.7673931917
 H          3.9842979896       -0.7316806705        1.8200093416
 H          4.2425709801       -2.1843364307       -0.0479869081
 H          3.1413117103       -3.7610822206       -1.5962960484
 H          0.6991536303       -4.0000501901       -1.5995416893
 H         -1.4179553305       -3.2871422995        0.9004116598
 C         -1.7154697597       -3.3035387297       -1.2197965703
 C         -1.9098487100       -4.7864952896       -1.3143830902
 C         -3.0946263598       -3.8843449294       -1.1486348408
 H         -3.7591032695       -3.7418730993       -1.9875909310
 H         -3.5915291002       -3.8578236992       -0.1894104510
 H         -1.7650193997       -5.2661359297       -2.2706902001
 H         -1.6099985004       -5.3859153296       -0.4680808401
 H         -1.4461578493       -2.7614495398       -2.1190871902
