  62
        -98.93845252
 C          2.5992681283        0.3381802567       -0.0777537015
 C          2.2920788071        1.3915948496       -0.9672543249
 C          1.6219925104        2.5681396683       -0.3897449573
 C          1.3317306862        2.5718913243        0.9232611927
 C          0.5859107857        3.6283150003        1.6910664190
 C         -0.9144973062        3.2904131827        1.7505754929
 C         -1.7385318058        3.8461721702        0.5909917821
 H         -2.7546206993        3.4614424262        0.7058989682
 H         -1.7857630952        4.9349722649        0.6669129626
 C         -1.2165402452        3.4641532767       -0.7966071583
 H         -0.9036382384        2.4175497215       -0.7802196180
 H         -2.0427158378        3.5499068055       -1.5059714370
 C         -0.0626668444        4.3595576342       -1.2729114900
 H         -0.0012658810        5.2326916505       -0.6233715902
 H         -0.2863649916        4.7334347814       -2.2743456063
 C          1.3138007603        3.6825729535       -1.3533424341
 H          2.0918463722        4.4475638985       -1.2576761703
 H          1.4400111772        3.2324689587       -2.3432555079
 H         -1.3275036051        3.6800662273        2.6835698102
 H         -1.0150920046        2.2014132550        1.7724243351
 H          0.9875838929        3.6168121871        2.7064379038
 H          0.7524486768        4.6108417014        1.2582660036
 O          1.6547605887        1.5398858627        1.7494672560
 C          2.2494648909        0.3878165383        1.2721474362
 O          2.4323073979       -0.4943814289        2.1338284347
 O          2.5491322975        1.3416884697       -2.2031383318
 C          3.1755002125       -0.9542127715       -0.6353834019
 C          2.1261436692       -2.0225248280       -0.4461019656
 C          2.3420559413       -3.2396315659        0.1849629274
 C          1.2835374821       -4.0981218659        0.4356951018
 C         -0.0094458935       -3.7573696321        0.0804802328
 C         -0.2258583731       -2.5589015250       -0.5825302858
 C          0.8356872298       -1.7189190511       -0.8623630462
 H          0.6503150486       -0.7759230976       -1.3626658729
 N         -1.5612080686       -2.1438889300       -0.8758499910
 S         -2.0878627186       -1.1690925456        0.4148207256
 O         -1.3415873242        0.0699152187        0.4446890090
 O         -2.0556206829       -1.9734936548        1.6097013042
 C         -3.7785484689       -0.8489357399       -0.0534460127
 C         -4.6970993104       -1.8736935729        0.0692706388
 C         -6.0071291190       -1.6479146307       -0.3210949893
 C         -6.3738267254       -0.4090019406       -0.8262075160
 C         -5.4402220548        0.6092782682       -0.9435038609
 C         -4.1273019014        0.3891367978       -0.5563945426
 H         -3.3678117754        1.1520263587       -0.6245503923
 H         -5.7274787503        1.5719813145       -1.3347221054
 H         -7.3943632220       -0.2351257305       -1.1287019571
 H         -6.7364495117       -2.4366151811       -0.2307513058
 H         -4.3653374835       -2.8152383764        0.4739109581
 H         -1.5728707170       -1.5543757113       -1.7008349655
 H         -0.8477004851       -4.3891212864        0.3235695505
 H          1.4665787977       -5.0331686955        0.9431047051
 H          3.3355863726       -3.5048447207        0.5083575638
 H          3.3105392466       -0.7778519197       -1.7126956907
 C          4.5140557065       -1.2879376182       -0.0171681426
 C          5.4907092936       -2.1465380863       -0.7628271830
 C          5.7545855666       -0.6809280165       -0.5983898948
 H          6.5379063971       -0.3679121971        0.0751921638
 H          5.6361583089       -0.0386012529       -1.4587580952
 H          6.0976160740       -2.8415435476       -0.2027559309
 H          5.1986024344       -2.5018985952       -1.7393102732
 H          4.4611700636       -1.3852449570        1.0611339704
