  62
        -98.93916897
 C         -2.2843188491       -0.9065009643        0.6587635924
 C         -3.3599972313       -0.8705309000       -0.2623373188
 C         -4.3939173151        0.1437578563       -0.0026152481
 C         -4.2750999138        0.9562064215        1.0622196236
 C         -5.2234929841        2.0672786263        1.4064056144
 C         -4.7859683014        3.3917205920        0.7652222482
 C         -4.4634749692        3.2807957607       -0.7250277021
 H         -4.1974388748        4.2806548718       -1.0748661633
 H         -3.5795915122        2.6510535925       -0.8521995341
 C         -5.6090917550        2.7261817960       -1.5831937090
 H         -5.7015272107        3.3396891542       -2.4817767667
 H         -6.5508457910        2.8046390155       -1.0389051980
 C         -5.4111734717        1.2822026397       -2.0476601879
 H         -6.1583386211        1.0667742229       -2.8160333332
 H         -4.4261856253        1.1772179652       -2.5094165833
 C         -5.5498872094        0.2084778108       -0.9613127098
 H         -6.4888624074        0.3485910611       -0.4222976972
 H         -5.5797363881       -0.7650637623       -1.4589183899
 H         -3.8920305748        3.7476869444        1.2827874841
 H         -5.5800582358        4.1256591720        0.9142333676
 H         -6.2233194507        1.8010888169        1.0690480443
 H         -5.2346013478        2.1851400289        2.4912583480
 O         -3.2361540176        0.8828511528        1.9341591376
 C         -2.2201616104       -0.0388930382        1.7526850069
 O         -1.3321083155        0.0040881498        2.6293279415
 H          1.1043908943       -0.4039750874        0.7484694491
 C          0.9097599236       -0.6721184426       -0.2809501611
 C         -0.2088082332       -1.4315910099       -0.5981680016
 C         -0.4511744439       -1.7410876507       -1.9322059211
 C          0.4165373775       -1.3075138123       -2.9182636294
 C          1.5481523209       -0.5804421185       -2.5958252389
 C          1.7923149488       -0.2544146657       -1.2663742388
 N          2.9199163746        0.5030747006       -0.9102575912
 S          3.6840021276        0.1581794088        0.5556369047
 O          3.7188536561       -1.2709452459        0.7701116441
 O          3.0759783151        0.9502627514        1.5952291140
 C          5.3267945195        0.7660004215        0.2188005150
 C          6.2992562342       -0.1196042388       -0.2060662159
 C          7.5663184666        0.3631695846       -0.4935518897
 C          7.8371191002        1.7161597380       -0.3550336389
 C          6.8510913791        2.5927706053        0.0732379751
 C          5.5823442094        2.1166292963        0.3634753310
 H          4.7870836628        2.7568474290        0.7086248231
 H          7.0662082645        3.6434080553        0.1832324405
 H          8.8237996913        2.0896001430       -0.5790327172
 H          8.3357242813       -0.3163144445       -0.8229797774
 H          6.0445553241       -1.1638546550       -0.2900823627
 H          3.5823317467        0.6028996724       -1.6674235329
 H          2.2333191277       -0.2583924936       -3.3654036146
 H          0.2157766740       -1.5514125948       -3.9505683888
 H         -1.3352829836       -2.2999198367       -2.1921815367
 C         -1.1252468951       -1.8809851609        0.5154633399
 H         -0.5585073095       -1.8055706331        1.4541499614
 C         -1.5806348323       -3.3168363003        0.3464334805
 C         -0.5843851693       -4.4161497649        0.5543154668
 C         -1.6805166818       -4.1982493553        1.5528741607
 H         -2.4854038700       -4.9163024215        1.6008590348
 H         -1.4215253735       -3.7677735933        2.5097696779
 H         -0.6345921747       -5.2857458839       -0.0826952523
 H          0.4198887707       -4.1301964413        0.8319587344
 H         -2.3275413185       -3.4482323382       -0.4249559363
 O         -3.4752587826       -1.6408661341       -1.2505643053
