  62
        -98.95000981
 C          2.0088040966        0.8735302686       -0.2460925797
 C          2.7828513014       -0.0583548407        0.4832483205
 C          2.8331483956       -1.4204863536       -0.0634363548
 C          2.1604729008       -1.7022663865       -1.1939079099
 C          2.1264170611       -3.0454763587       -1.8630987798
 C          0.9293981901       -3.8847030671       -1.3986644994
 C          0.7724791547       -3.9548317164        0.1203983053
 H          0.4876768767       -2.9706702405        0.5004205413
 H         -0.0672658245       -4.6226139863        0.3287101252
 C          2.0165603320       -4.4551878587        0.8677903003
 H          1.6969690707       -5.1657418439        1.6331910837
 H          2.6730650872       -4.9912683949        0.1807411663
 C          2.8124511499       -3.3624222614        1.5846602333
 H          2.1275234414       -2.7453387568        2.1728942286
 H          3.5015941129       -3.8458886527        2.2828253190
 C          3.6448111691       -2.4387096932        0.6857312994
 H          4.2470168680       -3.0376289649       -0.0010148553
 H          4.3217769440       -1.8684610271        1.3289103139
 H          0.0164939242       -3.4502375130       -1.8127282293
 H          1.0409986166       -4.8935653915       -1.8017174103
 H          2.0489497421       -2.8866441245       -2.9404094995
 H          3.0551505172       -3.5715539413       -1.6499773932
 O          1.4133767930       -0.7852787260       -1.8581780507
 C          1.2948285363        0.5125770898       -1.3869940093
 O          0.5419016252        1.2374994868       -2.0667327592
 O          3.4096544486        0.2390202222        1.5372951694
 C          1.8758226063        2.2975541228        0.2648558576
 C          0.4198529514        2.6008403236        0.5193893119
 C         -0.2172232965        3.7610630399        0.0991668531
 C         -1.5699985427        3.9403475637        0.3343666804
 C         -2.3160538518        2.9655584073        0.9712761890
 C         -1.6835287818        1.8073940984        1.4094139525
 C         -0.3227287458        1.6497736501        1.2077462652
 H          0.1587747070        0.7480517464        1.5562675977
 N         -2.3962104276        0.7820379790        2.0625652018
 S         -2.3704152475       -0.7603868280        1.4109113393
 O         -3.1953503484       -1.5509103770        2.2987155735
 O         -1.0122592124       -1.2028919020        1.2358117322
 C         -3.1910855667       -0.6061384725       -0.1654295646
 C         -2.5222463940       -0.0179449848       -1.2200778598
 C         -3.1874156908        0.1412181128       -2.4262114265
 C         -4.4994986687       -0.2864732596       -2.5574350333
 C         -5.1574826926       -0.8748725137       -1.4875374140
 C         -4.5006631313       -1.0327505165       -0.2781868329
 H         -4.9688149704       -1.4868237630        0.5802403080
 H         -6.1771340644       -1.2090878045       -1.5917135647
 H         -5.0096684907       -0.1607276007       -3.4994137428
 H         -2.6642768631        0.6002707669       -3.2499662688
 H         -1.4994404103        0.3050834263       -1.1032787563
 H         -3.3483472725        1.0293364995        2.2949863085
 H         -3.3758978475        3.0959416030        1.1300576348
 H         -2.0538641829        4.8449519143       -0.0010947369
 H          0.3422809861        4.5211457006       -0.4210177427
 H          2.4090903966        2.3167125278        1.2271352027
 C          2.5430604316        3.2698877218       -0.6848789605
 C          3.1289668465        4.5492171253       -0.1687166949
 C          4.0302036027        3.4396541280       -0.6177091499
 H          4.5780955303        3.5579827360       -1.5404101424
 H          4.5589465785        2.8705909513        0.1331248186
 H          3.0622777135        5.4330683666       -0.7849316004
 H          3.0534761003        4.7418437123        0.8907803252
 H          2.0830548790        3.2735144902       -1.6667328346
