  62
        -98.93526740
 C         -1.3687228001       -1.2899594194        0.2151637497
 C         -2.3946391298       -0.9712027098        1.1387254701
 C         -3.1293713598        0.2798712004        0.8961766509
 C         -2.7533652200        1.0697926609       -0.1256292488
 C         -3.4470774200        2.3335119611       -0.5489779380
 C         -4.7319304402        1.9904171116       -1.3298172378
 C         -6.0250297300        2.4191377614       -0.6363090673
 H         -6.8533092402        1.9440797917       -1.1663930273
 H         -6.1435484300        3.4996445914       -0.7417103867
 C         -6.1281439897        2.0806560807        0.8541991226
 H         -7.1774161996        2.1955874106        1.1344472529
 H         -5.5695237894        2.8144323803        1.4374706628
 C         -5.6625441097        0.6757504404        1.2583338018
 H         -5.7316264999       -0.0103299691        0.4137245514
 H         -6.3417284295        0.3013824501        2.0270686818
 C         -4.2417077195        0.6170905700        1.8500876514
 H         -4.2106921494       -0.1730440303        2.6065263710
 H         -4.0180657093        1.5613978098        2.3548997418
 H         -4.7512050604        0.9122085317       -1.5019651684
 H         -4.6988058705        2.4642898821       -2.3119332576
 H         -2.7570045001        2.8907854614       -1.1825497679
 H         -3.6805569997        2.9366721507        0.3257791723
 O         -1.7208201902        0.7639127912       -0.9510533092
 C         -1.0027222503       -0.4199064089       -0.8140022400
 O         -0.0911005905       -0.5545658186       -1.6466356103
 O         -2.6779197096       -1.6973903002        2.1301577498
 C         -0.5882791101       -2.5735391796        0.4390214588
 C          0.8906352999       -2.2871860296        0.3592726486
 C          1.7650985996       -2.9431048593       -0.4956819420
 C          3.1044139096       -2.5932107094       -0.5326303721
 C          3.5986079299       -1.5847945398        0.2728467282
 C          2.7309059502       -0.9219371701        1.1317793188
 C          1.3950138302       -1.2831300001        1.1778642689
 H          0.7206332004       -0.7603918403        1.8459962194
 N          3.2174045905        0.1257743094        1.9385089092
 S          4.0705901604        1.3370127497        1.1534698695
 O          5.4267650603        0.8974833597        0.9386285189
 O          3.9135859507        2.5086693493        1.9875914901
 C          3.2489210800        1.5667317706       -0.4113867602
 C          1.9728112800        2.0933412407       -0.4039689496
 C          1.3044139597        2.2481351913       -1.6061180493
 C          1.9178105594        1.8675506118       -2.7889293397
 C          3.1987667193        1.3402471317       -2.7798420302
 C          3.8742605996        1.1860911011       -1.5802037205
 H          4.8715634396        0.7807924310       -1.5284792610
 H          3.6698798091        1.0416887021       -3.7025148105
 H          1.3867659991        1.9762322923       -3.7211184795
 H          0.3016838497        2.6443252214       -1.6160042088
 H          1.5232284703        2.3789066902        0.5347622607
 H          2.5106272307        0.5310159692        2.5352768895
 H          4.6358093999       -1.2923431499        0.2480688181
 H          3.7715778594       -3.1083404791       -1.2066491026
 H          1.3959324194       -3.7123014089       -1.1533572922
 H         -0.8219212199       -2.8563693700        1.4795504188
 C         -1.0305364904       -3.7384945091       -0.4333836016
 C         -2.4176193206       -3.7976837187       -0.9981967913
 C         -1.2462069108       -3.5957610484       -1.9093234715
 H         -0.9522123711       -4.4136619081       -2.5508309420
 H         -1.0903365409       -2.6210583882       -2.3434454811
 H         -2.9259149607       -4.7502500987       -1.0113323816
 H         -3.0710585505       -2.9579378188       -0.8105184607
 H         -0.6143997604       -4.6810882293       -0.0911020422
