  62
        -98.93073147
 C         -2.3812666192       -1.2837345368        0.0683087154
 C         -2.3402124900        0.0687409330       -0.3416213980
 C         -3.6401754622        0.7201945305       -0.6184735393
 C         -4.7732030978        0.0132432022       -0.4561043389
 C         -6.1959773044        0.4689209240       -0.6435603073
 C         -6.6946229432        1.3456758640        0.5164848101
 C         -5.7056099010        2.4073471229        0.9903304443
 H         -6.1296618566        2.8834490207        1.8783570885
 H         -4.7766464905        1.9221032714        1.2956499473
 C         -5.3943395551        3.5050322335       -0.0241739904
 H         -6.3217415051        4.0122896194       -0.2992813681
 H         -4.7516732543        4.2348746776        0.4747608594
 C         -4.6903258377        3.0525451659       -1.3052493431
 H         -4.3176655634        3.9507941224       -1.8063850845
 H         -5.3888046911        2.5838529655       -1.9932388369
 C         -3.4818813203        2.1477384566       -1.0840973406
 H         -2.9131776940        2.0904707460       -2.0206986877
 H         -2.8020375352        2.6234763439       -0.3676974710
 H         -7.6271031142        1.8232788462        0.2113629742
 H         -6.9116190857        0.6913674450        1.3642529416
 H         -6.3004775555        0.9850691927       -1.5931796219
 H         -6.8099610140       -0.4334313623       -0.6856584964
 O         -4.7645313478       -1.2820641319       -0.0278990945
 C         -3.5924819947       -1.9547347497        0.2510569897
 O         -3.7532830966       -3.1235925124        0.6553483726
 H          1.4873028603       -1.3149385758       -0.1956678970
 C          1.1331752466       -0.9501052085        0.7528989299
 C         -0.1566824335       -1.2256572036        1.1782761063
 C         -0.5800975261       -0.7146790136        2.4026966145
 C          0.2583504324        0.0732962433        3.1659913416
 C          1.5400948369        0.3591756812        2.7306432144
 C          1.9798786487       -0.1612736950        1.5189616838
 N          3.3005999358        0.0721678585        1.0973104462
 S          3.7346055100        0.0751029968       -0.5300403134
 O          3.0107322638        1.0898651467       -1.2621236978
 O          3.6526312861       -1.2701590601       -1.0409418578
 C          5.4482250075        0.5455756849       -0.3681757356
 C          5.8182813332        1.8603112227       -0.5783182709
 C          7.1492532749        2.2158397240       -0.4245409319
 C          8.0824935697        1.2562493482       -0.0625237526
 C          7.6966165577       -0.0600231849        0.1436828584
 C          6.3678987945       -0.4219139181       -0.0099227178
 H          6.0232017227       -1.4330305884        0.1302905983
 H          8.4255330150       -0.8039744707        0.4220078957
 H          9.1174948469        1.5353572882        0.0565392530
 H          7.4525424533        3.2374029135       -0.5882195195
 H          5.0597324804        2.5700650763       -0.8675196275
 H          3.7292715611        0.8501972192        1.5798648932
 H          2.1938751976        0.9808969916        3.3233228122
 H         -0.0892437803        0.4743403977        4.1064714932
 H         -1.5860586071       -0.9311739017        2.7379448648
 C         -1.1190054008       -2.0690475761        0.3778459305
 H         -1.4527262406       -2.8994170471        1.0233212427
 C         -0.4756057364       -2.7039466238       -0.8462172124
 C         -1.2818249799       -3.0677768091       -2.0559859731
 C         -0.2871073948       -1.9501135034       -2.1269460398
 H          0.6295357473       -2.1018727623       -2.6793047417
 H         -0.6486974497       -0.9343052996       -2.1647023503
 H         -1.0540330365       -3.9938278153       -2.5620489398
 H         -2.3330058981       -2.8179510947       -2.0531114059
 H          0.3155251380       -3.3969031704       -0.5743881786
 O         -1.2761587958        0.7297200766       -0.4722720415
