  62
        -98.94440418
 C          1.9498774463        1.3500012756        0.0667968174
 C          2.2316447841        0.3918860473       -0.9369305781
 C          3.6063975013       -0.1316304489       -0.9601479156
 C          4.5042769016        0.3112242486       -0.0624079702
 C          5.9162764844       -0.1814815354        0.0596704515
 C          6.0126749088       -1.3537136189        1.0461327854
 C          4.9814091837       -2.4551896562        0.8002199083
 H          5.1657810496       -3.2429327363        1.5339849489
 H          3.9822360356       -2.0602931633        0.9993336950
 C          5.0169749395       -3.0545604412       -0.6126018759
 H          4.9528208309       -4.1418786108       -0.5330447533
 H          5.9690415034       -2.8207922969       -1.0904759022
 C          3.8705974689       -2.6066627877       -1.5212665740
 H          2.9175217476       -2.7546241046       -1.0065088916
 H          3.8675424075       -3.2498646129       -2.4054855318
 C          3.9359555685       -1.1544585316       -2.0112538066
 H          4.9175962286       -0.9573727595       -2.4465102488
 H          3.1825407831       -1.0345898546       -2.7951572324
 H          7.0180817710       -1.7742502589        0.9852720279
 H          5.8661044248       -0.9683376326        2.0578126659
 H          6.2757778702       -0.4876196279       -0.9207950732
 H          6.5361909321        0.6395308272        0.4238396662
 O          4.2041945430        1.2399081008        0.8795415496
 C          2.9309136804        1.7713865549        0.9722016587
 O          2.7951762216        2.6091820126        1.8858280563
 H         -0.3952891049       -0.3715631756       -0.6102613323
 C         -0.7943013003       -0.1006037691        0.3559609960
 C         -0.3772287678        1.0792833102        0.9557994720
 C         -0.8894540044        1.4058042585        2.2057340962
 C         -1.7950545193        0.5711289946        2.8381070389
 C         -2.2086790944       -0.6038252210        2.2365986612
 C         -1.6964663804       -0.9407801337        0.9905413571
 N         -2.1267876368       -2.1282816154        0.3603350512
 S         -3.7774279960       -2.2113887388        0.0725731625
 O         -4.4548489352       -2.5573609478        1.2969499111
 O         -3.9396979183       -3.1374351887       -1.0255236648
 C         -4.2172386903       -0.5550483532       -0.4216257529
 C         -3.8023902070       -0.1167615857       -1.6634330126
 C         -4.0630491979        1.1922029084       -2.0333306020
 C         -4.7226104152        2.0386564827       -1.1553839861
 C         -5.1324834750        1.5831420314        0.0877677196
 C         -4.8763334630        0.2740423142        0.4627047704
 H         -5.1770855101       -0.1206431933        1.4191770292
 H         -5.6454709531        2.2442118349        0.7674048557
 H         -4.9188876167        3.0596736042       -1.4427433951
 H         -3.7460431408        1.5468472777       -3.0011601364
 H         -3.2937300270       -0.8032956013       -2.3216152260
 H         -1.6201475582       -2.3180658808       -0.4933464484
 H         -2.9190529890       -1.2637602609        2.7080253726
 H         -2.1833249784        0.8384008290        3.8090226574
 H         -0.5640097928        2.3171387048        2.6859969132
 C          0.5862907339        2.0009261258        0.2472169643
 H          0.7602002245        2.8668519060        0.8992704052
 C         -0.0144797291        2.4958818870       -1.0554434193
 C         -1.0910182033        3.5359509998       -1.0055739451
 C          0.2737286201        3.8926384662       -1.5122967292
 H          0.4046893638        4.0718502935       -2.5689262695
 H          0.9090505853        4.5022631305       -0.8859843860
 H         -1.3834416283        3.9053907334       -0.0345648332
 H         -1.9021487538        3.4693858162       -1.7134068992
 H         -0.0869887501        1.7298489914       -1.8155107662
 O          1.3970241383       -0.0247882922       -1.7856890555
