  62
        -98.93307211
 C         -2.4636605181       -0.9470726424       -0.0337278741
 C         -3.6591144565       -0.9631761498        0.7212967950
 C         -4.8739897424       -0.4973000675        0.0329240272
 C         -4.7907269304       -0.0884451053       -1.2449296123
 C         -5.8989425033        0.3878483913       -2.1505884546
 C         -6.9381540694        1.3478001469       -1.5551462394
 C         -6.3991718718        2.3047924425       -0.4818530111
 H         -5.3080838805        2.2768287145       -0.4680927754
 H         -6.6946587873        3.3247278264       -0.7350532227
 C         -6.9358347389        1.9948811448        0.9177418452
 H         -8.0032212415        1.7759001560        0.8428021031
 H         -6.8282551096        2.8863506331        1.5404531594
 C         -6.2403664017        0.8467470589        1.6481651885
 H         -6.7897018791        0.6545280534        2.5729895842
 H         -5.2292363535        1.1487664507        1.9349027778
 C         -6.1273138917       -0.4683844446        0.8598763365
 H         -6.0313406536       -1.2841985865        1.5815537298
 H         -7.0136312951       -0.6425901056        0.2548157935
 H         -7.3453776739        1.9260306431       -2.3862438349
 H         -7.7651844294        0.7760499409       -1.1365086391
 H         -5.3909868795        0.8720005020       -2.9881063550
 H         -6.4122832378       -0.4914960364       -2.5503576392
 O         -3.6146443512       -0.0879047304       -1.9346410452
 C         -2.4273264501       -0.5061173206       -1.3553096649
 O         -1.4372362368       -0.4416719393       -2.1081111513
 O         -3.7118571444       -1.3559253851        1.9180028612
 C         -1.1738376679       -1.4074651517        0.6200583259
 C         -0.1712686976       -0.2795156034        0.6281774215
 C         -0.5562198725        0.9523175223        1.1520238907
 C          0.3236216339        2.0164379006        1.1795216869
 C          1.6095776333        1.8780617346        0.6867139291
 C          2.0089231441        0.6520911036        0.1746653597
 C          1.1233726602       -0.4201682761        0.1562728617
 H          1.4493307138       -1.3662022391       -0.2468137507
 N          3.3088879020        0.5032764991       -0.3381368493
 S          4.5764484402        1.2220002507        0.5151945224
 O          4.4331461171        0.9602685014        1.9299301907
 O          4.6548042809        2.6113389764        0.1384318444
 C          5.9740920947        0.3354763810       -0.1447300478
 C          6.5011464176        0.7326373533       -1.3590365539
 C          7.5706451623        0.0269985450       -1.8868789256
 C          8.0914137893       -1.0576795877       -1.1966900070
 C          7.5523360243       -1.4434833183        0.0213928506
 C          6.4819105556       -0.7428917066        0.5547185138
 H          6.0367036447       -1.0014612530        1.5021163964
 H          7.9611248229       -2.2853233358        0.5567020236
 H          8.9246243169       -1.6042419478       -1.6094431862
 H          7.9942582700        0.3248880443       -2.8324091256
 H          6.0695672052        1.5861755829       -1.8552653336
 H          3.5195374798       -0.4553511008       -0.5794735867
 H          2.3070616075        2.7001731049        0.7000674376
 H          0.0077414634        2.9656643094        1.5866076830
 H         -1.5610703593        1.0643010444        1.5369140345
 H         -1.4402325646       -1.6320297463        1.6637508726
 C         -0.6709178464       -2.6751663246       -0.0371527377
 C          0.1800500578       -3.6385249583        0.7341555102
 C         -1.2377964720       -3.9908986152        0.4012284755
 H         -1.4208685262       -4.7478393048       -0.3465384748
 H         -1.9709404186       -3.9748722998        1.1943055258
 H          0.9703195449       -4.1599942320        0.2152529277
 H          0.4133005189       -3.3891177280        1.7583371808
 H         -0.4717989274       -2.5445212615       -1.0950443252
