  62
        -98.94483692
 C         -1.4221167089       -0.7673329895        0.3186948992
 C         -2.4289083988       -0.7988335089       -0.6778255608
 C         -3.3255884087        0.3655592813       -0.7142075002
 C         -3.1210811286        1.4037072108        0.1149179003
 C         -3.9310284685        2.6704524609        0.1687083210
 C         -5.2029591585        2.5606879706        1.0209797209
 C         -6.3290208586        1.7278113510        0.4070847304
 H         -7.2254414886        1.9139239008        1.0020389105
 H         -6.5313083985        2.0811382716       -0.6045011494
 C         -6.0585171487        0.2168889910        0.3824224596
 H         -5.2475795988       -0.0196771595        1.0752967295
 H         -6.9440604588       -0.3174704991        0.7340689693
 C         -5.7098158288       -0.3418152383       -0.9972462607
 H         -6.5678925687       -0.2321881979       -1.6641419806
 H         -5.5002141689       -1.4092609684       -0.8911062112
 C         -4.4912343187        0.3182244819       -1.6555805603
 H         -4.7462710685        1.3202340621       -1.9992081098
 H         -4.1983586787       -0.2851125777       -2.5180559206
 H         -5.5764394384        3.5748492305        1.1808634114
 H         -4.9354327686        2.1481043700        1.9966555307
 H         -3.2878301384        3.4341579406        0.6110696414
 H         -4.1952609584        2.9807732514       -0.8425310989
 O         -2.1035770486        1.4242993502        1.0170562504
 C         -1.2643863688        0.3332750800        1.1659879898
 O         -0.4193993788        0.4643365595        2.0755058799
 O         -2.5940118389       -1.7339011784       -1.5034854213
 C         -0.4326424790       -1.9016654797        0.5397999087
 C          0.7132466711       -1.7935544793       -0.4377987412
 C          0.5332590211       -2.0005726086       -1.8017914113
 C          1.6001870311       -1.8785409983       -2.6724358512
 C          2.8576652011       -1.5346081387       -2.2071143610
 C          3.0468602411       -1.3214199994       -0.8471392309
 C          1.9778487411       -1.4633932697        0.0272573990
 H          2.1413395111       -1.3028785103        1.0821369891
 N          4.3128448811       -0.9785828598       -0.3437706307
 S          4.4583899512        0.2380124796        0.7968775099
 O          5.8651553013        0.5758772594        0.7763310902
 O          3.9331037312       -0.2049209610        2.0620526897
 C          3.5069497614        1.5927927500        0.1343161806
 C          2.1934116214        1.7798389200        0.5122329007
 C          1.4690546016        2.8031740304       -0.0803330988
 C          2.0633527217        3.6177288208       -1.0305319884
 C          3.3876224217        3.4207180208       -1.3937140784
 C          4.1151951915        2.3966467305       -0.8116902089
 H          5.1492574015        2.2160283805       -1.0573480390
 H          3.8506612718        4.0598467112       -2.1280921981
 H          1.4920404318        4.4113885411       -1.4857421580
 H          0.4400418616        2.9469264303        0.2118147312
 H          1.7409995413        1.1451082797        1.2580768303
 H          5.0293804912       -0.8911241395       -1.0502384306
 H          3.6878451612       -1.4342719884       -2.8895868109
 H          1.4498940911       -2.0445465977       -3.7284193813
 H         -0.4514459489       -2.2411073183       -2.1712579015
 H         -0.0212452490       -1.7450870503        1.5467447288
 C         -1.0726461091       -3.2750755296        0.4984667679
 C         -0.3653499193       -4.4195172001        1.1566253574
 C         -1.6188466692       -3.8640295002        1.7623927776
 H         -2.5237608393       -4.4505751401        1.7091117173
 H         -1.5316210492       -3.2785693107        2.6667612579
 H         -0.4074751294       -5.3902898998        0.6872180469
 H          0.5720118207       -4.2103215204        1.6508168175
 H         -1.6147658691       -3.4748780891       -0.4157428822
