  62
        -98.94404589
 C          0.6758000930        2.0939526827       -0.6392627555
 C          1.0127183919        0.8362093651       -1.2002276727
 C          2.3983030026        0.3888513637       -0.9818859346
 C          3.2385276212        1.1463033408       -0.2565829189
 C          4.6596490438        0.7897436638        0.0698169384
 C          4.7634243495        0.0423086782        1.4056961165
 C          3.7949043547       -1.1332651098        1.5391232142
 H          4.0028197198       -1.6174337439        2.4964890011
 H          2.7687357649       -0.7596415976        1.5926722839
 C          3.8921346795       -2.1699383750        0.4114257043
 H          3.8656409087       -3.1675414150        0.8553133096
 H          4.8467236120       -2.0697312853       -0.1072709664
 C          2.7458878511       -2.1005782921       -0.5993768945
 H          2.7473243035       -3.0237973144       -1.1850106283
 H          1.7975595203       -2.0483446822       -0.0585997258
 C          2.7946574180       -0.9281559650       -1.5866564019
 H          3.7862000312       -0.8646284582       -2.0401015335
 H          2.0637369645       -1.1279741136       -2.3756487480
 H          5.7885721971       -0.3162566234        1.5196258307
 H          4.5577240881        0.7468268279        2.2150011822
 H          5.2363415004        1.7141650944        0.1377064725
 H          5.0667577036        0.1775377529       -0.7326493325
 O          2.8719458783        2.3327009886        0.2935448981
 C          1.5893939893        2.8238752050        0.1247113960
 O          1.3865698670        3.9212483551        0.6858639836
 O          0.2220400880        0.1151508286       -1.8608666348
 C         -0.7006431232        2.7277280961       -0.7749130832
 C         -1.6125358954        2.2356755303        0.3190422717
 C         -2.3636769307        3.1141980365        1.0903557543
 C         -3.1745206202        2.6368453980        2.1057752029
 C         -3.2395991910        1.2823852894        2.3796182999
 C         -2.4916927844        0.3960236562        1.6118074170
 C         -1.7006001456        0.8755371752        0.5797146080
 H         -1.1242467524        0.1853465423       -0.0126582230
 N         -2.5452926591       -0.9859314247        1.8399974770
 S         -1.2157724896       -1.9648749240        1.5620870199
 O         -1.3973752737       -3.0863025086        2.4627490789
 O          0.0254995786       -1.2416202190        1.7189089456
 C         -1.3944178742       -2.5636612497       -0.1064990259
 C         -2.3710994942       -2.0822042987       -0.9518694887
 C         -2.4470860117       -2.5867637309       -2.2406731787
 C         -1.5556913650       -3.5604191743       -2.6595596733
 C         -0.5897007997       -4.0464289848       -1.7925860548
 C         -0.5091906872       -3.5464886438       -0.5038334665
 H          0.2229464554       -3.9015901649        0.2042607435
 H          0.1016533026       -4.8083109974       -2.1156754689
 H         -1.6138131231       -3.9434652227       -3.6662650551
 H         -3.2004540399       -2.2104733765       -2.9140206118
 H         -3.0542760120       -1.3234778489       -0.6082561628
 H         -3.0590072726       -1.2749020874        2.6586953663
 H         -3.8591662828        0.9118758677        3.1820204025
 H         -3.7526754129        3.3279825832        2.7002061481
 H         -2.2942664911        4.1758819253        0.9036153584
 H         -0.5395834931        3.8054349334       -0.6115300453
 C         -1.2952780293        2.5630985014       -2.1675186827
 C         -2.4746144099        1.6924319604       -2.4666702050
 C         -2.6231492149        3.1821433302       -2.4912452965
 H         -2.7439287053        3.6787178066       -3.4420383392
 H         -3.1657462676        3.6428916720       -1.6794518796
 H         -2.4693019928        1.1509568847       -3.3997764676
 H         -2.9247197001        1.1500999813       -1.6507944837
 H         -0.5327409797        2.6185329432       -2.9375282408
