  62
        -98.93424567
 C          1.9501730851        0.9712201605       -0.1682249182
 C          2.7541168387        0.4412767433        0.8690677600
 C          3.2313786941       -0.9458918139        0.7227952821
 C          2.8545201831       -1.6422837313       -0.3653079943
 C          3.2410983160       -3.0457700504       -0.7496045081
 C          4.6722817762       -3.1335235751       -1.3064923542
 C          5.7128910303       -2.3182501876       -0.5425372563
 H          6.6485937966       -2.3637344321       -1.1060208426
 H          5.3998897197       -1.2727911219       -0.5182119641
 C          6.0002462931       -2.7961876963        0.8786990686
 H          6.8053541483       -2.1719720248        1.2745017931
 H          6.3643169215       -3.8254098933        0.8429799631
 C          4.8250958091       -2.7324147868        1.8559031124
 H          5.2293896342       -2.8832638136        2.8611830771
 H          4.1254689279       -3.5448084101        1.6791170261
 C          4.0868252653       -1.3974219850        1.8824371424
 H          3.4272531246       -1.3810480214        2.7586579186
 H          4.8096233509       -0.5912105822        2.0518914299
 H          4.6543254495       -2.7668985679       -2.3357281596
 H          4.9707795139       -4.1829396754       -1.3270244880
 H          2.5424457183       -3.3602817352       -1.5282534196
 H          3.1104017530       -3.7114910479        0.0985058221
 O          2.0642674772       -1.1009704527       -1.3350227049
 C          1.5909007679        0.1993586048       -1.2743559184
 O          0.8926391966        0.5233411554       -2.2550256633
 O          3.0832517914        1.1134883588        1.8859866090
 C          1.4843818179        2.4031321279       -0.0071242066
 C          0.0967723515        2.5199294433        0.5850870227
 C         -0.2700123276        3.6896337478        1.2446694861
 C         -1.5390380126        3.8339743236        1.7723572550
 C         -2.4682705993        2.8163719390        1.6543943417
 C         -2.1094943556        1.6382445742        1.0091532465
 C         -0.8345440876        1.4992366832        0.4772878059
 H         -0.5802592482        0.5825369426       -0.0326849082
 N         -3.0201644329        0.5727847214        0.9285304243
 S         -2.9469962919       -0.5075438955       -0.3654113909
 O         -1.8892255594       -1.4563154544       -0.1205864825
 O         -2.9124284863        0.2147405278       -1.6163910614
 C         -4.5314881536       -1.3049524685       -0.1729907972
 C         -4.6526681831       -2.3516188514        0.7210936845
 C         -5.8940111534       -2.9425655458        0.8971152786
 C         -6.9880416025       -2.4791348271        0.1815205470
 C         -6.8510937537       -1.4294019126       -0.7142843579
 C         -5.6125568264       -0.8338447909       -0.8942491740
 H         -5.4550566662       -0.0225310825       -1.5867033380
 H         -7.7020082791       -1.0731342069       -1.2721318844
 H         -7.9527587840       -2.9407641368        0.3207099406
 H         -6.0032363758       -3.7607704252        1.5904868079
 H         -3.7724982679       -2.6816242716        1.2480402679
 H         -3.9718403368        0.8531816289        1.1234256345
 H         -3.4597501494        2.9249857412        2.0664370124
 H         -1.8097735060        4.7473329764        2.2795181626
 H          0.4508034213        4.4861112339        1.3452409308
 H          2.1842021548        2.8536516662        0.7124298450
 C          1.5481935778        3.1964817134       -1.3003049085
 C          1.9371249771        4.6430805942       -1.2832940332
 C          2.8814015791        3.6201197251       -1.8374925059
 H          3.0418380501        3.5764374474       -2.9040000222
 H          3.7541039987        3.3634218432       -1.2543785538
 H          1.4438877683        5.3136010672       -1.9699338814
 H          2.1891800490        5.0893003765       -0.3335231123
 H          0.8038933900        2.8816056028       -2.0219250287
