  62
        -98.93165490
 C          2.2861388698        1.3555329200        0.3360801009
 C          2.3897045796        0.3166693600       -0.6185243391
 C          3.3731309993       -0.7489666402       -0.3300488691
 C          4.0542845593       -0.7204641904        0.8284888609
 C          5.1039063290       -1.6767056507        1.3364203910
 C          4.8258381587       -3.1758164106        1.1461087109
 C          5.7224272786       -3.8329533808        0.0950598409
 H          6.7293467287       -3.4216030310        0.1919306810
 H          5.7857263283       -4.9020479108        0.3098394309
 C          5.2511263387       -3.6796315406       -1.3500598791
 H          6.0424239787       -4.0640885508       -1.9978268991
 H          4.3686587486       -4.3027232304       -1.5105574492
 C          4.9163830291       -2.2501269705       -1.7802098591
 H          4.9928663992       -2.2022752805       -2.8684892191
 H          5.6483667892       -1.5497303307       -1.3793652490
 C          3.4975475392       -1.8079160302       -1.3913529092
 H          2.9907407193       -1.3851059001       -2.2644205492
 H          2.9035771990       -2.6767960401       -1.0938801892
 H          5.0096409985       -3.6709230807        2.1011328309
 H          3.7763655587       -3.3305307503        0.9003999508
 H          6.0601149291       -1.4161456109        0.8755883810
 H          5.2006352890       -1.4497771207        2.4007784810
 O          3.8746970894        0.2706565596        1.7500259810
 C          2.9991292597        1.3184539098        1.5352399809
 O          2.9337890698        2.1334094398        2.4781589510
 H         -0.1716349404        0.7478051505        1.4179579407
 C         -0.6633408603        1.0795926807        0.5101817907
 C         -0.0213265000        2.0082303006       -0.3008922793
 C         -0.6621444598        2.4293175008       -1.4577716593
 C         -1.9041913899        1.9192844411       -1.7943049794
 C         -2.5314403002        0.9841065012       -0.9926466795
 C         -1.9020243604        0.5593308710        0.1703650406
 N         -2.5226127107       -0.4050474789        0.9845165105
 S         -4.1177244806       -0.1537460186        1.4430764204
 O         -4.4349739603        1.2543572915        1.5052752204
 O         -4.2796983309       -0.9034127986        2.6701233903
 C         -5.0639684007       -0.9386140583        0.1554442703
 C         -6.0212203405       -0.2196316380       -0.5330976897
 C         -6.7516162006       -0.8555857478       -1.5250645398
 C         -6.5134896109       -2.1916697279       -1.8085218799
 C         -5.5501993111       -2.9002853681       -1.1058069698
 C         -4.8173847310       -2.2708637283       -0.1124313397
 H         -4.0628170712       -2.7859145185        0.4584680403
 H         -5.3674778213       -3.9391378382       -1.3290381698
 H         -7.0819339309       -2.6842219977       -2.5815495399
 H         -7.5013223404       -0.3069375376       -2.0721769299
 H         -6.1677690203        0.8187408920       -0.2816809897
 H         -1.9651205208       -0.6854553391        1.7781179105
 H         -3.4945510003        0.5794042314       -1.2574647795
 H         -2.3877558798        2.2499425712       -2.7008626294
 H         -0.1804115096        3.1395493707       -2.1091121292
 C          1.3263126401        2.5179122902        0.1501376809
 H          1.1972113001        2.9412889602        1.1608755609
 C          1.8708276004        3.6415881201       -0.7193078691
 C          3.3453499105        3.8911200198       -0.8223963490
 C          2.5864503804        3.3840093900       -2.0098399990
 H          2.4155215506        4.0616679401       -2.8335250690
 H          2.7208447602        2.3570845800       -2.3090721891
 H          3.6922037807        4.9136155497       -0.8277873689
 H          4.0056288603        3.2100252596       -0.3048841789
 H          1.2395610006        4.5240450803       -0.6782925191
 O          1.7052033297        0.2665114102       -1.6720878992
