  62
        -98.93936903
 C         -1.8104609866       -0.0978886328       -0.8288184862
 C         -1.7798197091       -0.7014747443        0.4508001855
 C         -1.1985088879       -2.0594921321        0.5368702884
 C         -0.7307270791       -2.6428393963       -0.5809792399
 C         -0.0946755372       -3.9990871962       -0.7516183005
 C          1.3492248231       -4.0645275929       -0.2373560623
 C          1.5548070465       -3.4948827637        1.1632462140
 H          2.6199971802       -3.5728199321        1.3999971721
 H          1.3086124488       -2.4312567688        1.1753726079
 C          0.7756481401       -4.2034747727        2.2695690582
 H          1.0025975932       -5.2717999415        2.2443544266
 H          1.1436811385       -3.8070704677        3.2193564746
 C         -0.7455169631       -4.0181847863        2.2440451771
 H         -1.1198480045       -4.2706191105        3.2402448557
 H         -1.2226205281       -4.7085234057        1.5523170528
 C         -1.2007869180       -2.5928989853        1.9475947197
 H         -2.2302988834       -2.4685810033        2.3042201905
 H         -0.6035074799       -1.8865748575        2.5374165955
 H          1.6688753047       -5.1085712468       -0.2542959749
 H          1.9888007337       -3.5062889826       -0.9259421355
 H         -0.7017640899       -4.7612828585       -0.2719362818
 H         -0.0903962378       -4.2043290460       -1.8248401999
 O         -0.7691142990       -2.0147832634       -1.7938907529
 C         -1.2680328999       -0.7354937183       -1.9447101840
 O         -1.1734679282       -0.2807443261       -3.1024877742
 O         -2.2226551426       -0.1507411807        1.4918071795
 C         -2.2927474259        1.3299244783       -1.0302591724
 C         -1.6628816350        2.2045664768        0.0264606409
 C         -2.3619743936        3.0754979744        0.8501471472
 C         -1.6925011492        3.8075177795        1.8164240026
 C         -0.3287799320        3.6692182715        1.9981452058
 C          0.3800391175        2.8009539959        1.1753958899
 C         -0.2850262257        2.1095411410        0.1790738866
 H          0.2689993924        1.4421620136       -0.4650518861
 N          1.7642421488        2.6115368346        1.3206485824
 S          2.3805002812        1.0586468170        1.1677698956
 O          1.4460315638        0.0557396628        1.6172597695
 O          3.6459500027        1.1086209653        1.8717200793
 C          2.7046906776        0.8792507248       -0.5726976034
 C          2.1822259163       -0.2025620296       -1.2520649262
 C          2.4387765684       -0.3366975757       -2.6066940359
 C          3.2179399574        0.6095727302       -3.2542212792
 C          3.7448282431        1.6863024685       -2.5563364755
 C          3.4875819229        1.8264776870       -1.2020130139
 H          3.8773433963        2.6485331478       -0.6253011608
 H          4.3508234259        2.4179218580       -3.0660221927
 H          3.4113980475        0.5054444332       -4.3101724382
 H          2.0127383931       -1.1666457611       -3.1482107364
 H          1.5693018654       -0.9086920969       -0.7133059848
 H          2.1777301253        3.0974462381        2.1035521499
 H          0.1836414753        4.2167934719        2.7747355770
 H         -2.2465740199        4.4787848693        2.4552176011
 H         -3.4320601763        3.1626133240        0.7573689802
 H         -1.8728889302        1.6299264736       -2.0054299953
 C         -3.8007748975        1.4901870605       -1.1438745150
 C         -4.6681639734        0.3466405364       -1.5764395922
 C         -4.7509573969        0.8603619822       -0.1719748002
 H         -5.6308478228        1.4166804382        0.1171289977
 H         -4.3271924970        0.2665675696        0.6219056471
 H         -5.4863358125        0.5502546018       -2.2510109607
 H         -4.1898316104       -0.6076099399       -1.7446162105
 H         -4.0754931339        2.4679475598       -1.5277876991
