  62
        -98.94059955
 C         -1.6441457205       -1.0229137283        0.8860230708
 C         -2.8866177595       -1.2397544316        0.2396710184
 C         -3.8792186412       -0.1648863292        0.3987765951
 C         -3.5757568478        0.9409449742        1.1002420348
 C         -4.4868984058        2.1115207130        1.3529480996
 C         -4.5189665541        3.1373158959        0.2115253039
 C         -5.2622061443        2.6880657232       -1.0471847774
 H         -6.2549081454        2.3294753373       -0.7731661915
 H         -5.3973280117        3.5729996099       -1.6722930435
 C         -4.5317399327        1.6134075665       -1.8646103868
 H         -4.5540797161        1.8830864909       -2.9228614547
 H         -3.4816315876        1.5784654200       -1.5654039800
 C         -5.1275492396        0.2110649309       -1.7421748289
 H         -6.1358443920        0.2026263470       -2.1622297974
 H         -4.5129412674       -0.4759878571       -2.3291525937
 C         -5.1932239078       -0.3233492091       -0.3056057388
 H         -5.9847756831        0.1810928598        0.2481499858
 H         -5.4209049971       -1.3913430428       -0.3481988513
 H         -5.0086085943        4.0353464017        0.5953373873
 H         -3.4918795055        3.4035936409       -0.0480287379
 H         -5.4976862403        1.7531117260        1.5501529530
 H         -4.1132468988        2.6073646334        2.2515210183
 O         -2.3648007336        1.1176287655        1.6942748406
 C         -1.3772654070        0.1532113272        1.5917437617
 O         -0.3131354524        0.4498159487        2.1721229317
 O         -3.1753833277       -2.2605579125       -0.4336369397
 C         -0.4892309241       -2.0100123353        0.8346896565
 C          0.4176125577       -1.6695400397       -0.3199555430
 C         -0.0865140401       -1.5124110574       -1.6080437094
 C          0.7560510449       -1.1802635069       -2.6522760307
 C          2.1083651587       -0.9814957464       -2.4309930891
 C          2.6207570673       -1.1317294578       -1.1481403353
 C          1.7744447155       -1.4844512288       -0.1046841109
 H          2.1856466693       -1.5941360426        0.8872616213
 N          3.9911738020       -0.9500880563       -0.8968167547
 S          4.4950785121        0.0028564557        0.3851451911
 O          5.9127184465        0.1810835401        0.1603113530
 O          4.1220816585       -0.6126921240        1.6317469852
 C          3.6539921758        1.5576825353        0.1500750174
 C          4.2894428161        2.5246534027       -0.6065053638
 C          3.6378969078        3.7204612947       -0.8570030387
 C          2.3599715638        3.9259729368       -0.3579628705
 C          1.7363162276        2.9449548177        0.3962501170
 C          2.3844111235        1.7469515557        0.6570240241
 H          1.9050868390        0.9828755762        1.2487848884
 H          0.7434052499        3.0908344792        0.7926568729
 H          1.8483816240        4.8552164956       -0.5539971147
 H          4.1243556957        4.4863314503       -1.4393653687
 H          5.2857570312        2.3255810797       -0.9671056956
 H          4.5350031515       -0.7358463424       -1.7208294626
 H          2.7638742595       -0.7144380595       -3.2459263624
 H          0.3555976596       -1.0660294606       -3.6482289838
 H         -1.1427169455       -1.6593460707       -1.7778875264
 H          0.0840682116       -1.8375941038        1.7605648467
 C         -0.9284945650       -3.4670855957        0.8460110795
 C         -0.7505753293       -4.3959922187       -0.3133590794
 C          0.1095674581       -4.5489152231        0.9026322960
 H         -0.0552303473       -5.3923207524        1.5560355709
 H          1.1438195357       -4.2459608781        0.8260909945
 H         -1.5297941783       -5.1203517749       -0.4945889174
 H         -0.2953341893       -4.0131296695       -1.2129242074
 H         -1.8181876317       -3.6179379535        1.4480592313
