  62
        -98.93403002
 C         -1.8615234704       -1.4214421997       -0.4361118401
 C         -1.7739645202       -0.1574393398        0.1913417599
 C         -3.0362321301        0.4206408604        0.7037178701
 C         -4.1720708702       -0.2927038695        0.5985727902
 C         -5.5662206201        0.0900627307        1.0208208404
 C         -6.2231736401        1.0972981608        0.0651215904
 C         -5.3305536800        2.2656243507       -0.3431897596
 H         -5.8774996000        2.8582319708       -1.0811936796
 H         -4.4374776401        1.8782735806       -0.8364133297
 C         -4.9202063097        3.1978035206        0.7945621103
 H         -5.8175053396        3.5866952107        1.2809106504
 H         -4.3943921296        4.0440704506        0.3452221003
 C         -4.0086439097        2.5896477005        1.8640581902
 H         -4.5736414097        1.9880083206        2.5711743603
 H         -3.5817649695        3.4183085305        2.4366094802
 C         -2.8341271598        1.7870444704        1.3139501901
 H         -2.1019542998        1.6416418103        2.1173974000
 H         -2.3160561698        2.3873699603        0.5572396500
 H         -7.1315870800        1.4763277609        0.5366815506
 H         -6.5130349502        0.5635170309       -0.8434929595
 H         -6.1562214102       -0.8293926992        1.0157592704
 H         -5.5593331499        0.4717011007        2.0375351904
 O         -4.1986222904       -1.5319602694        0.0272698302
 C         -3.0672002305       -2.1229901796       -0.4973136299
 O         -3.2527096407       -3.2613009296       -0.9734575899
 H          2.0006936695       -1.4037501702       -1.4409704705
 C          1.7947337195       -1.6832195202       -0.4195265805
 C          0.5129895895       -2.0537447000       -0.0429370704
 C          0.2910996796       -2.4014069000        1.2876192097
 C          1.3115530598       -2.3491124002        2.2167209896
 C          2.5886499498       -1.9720577503        1.8376463994
 C          2.8264440197       -1.6431308903        0.5115513194
 N          4.1335708797       -1.2797480705        0.1195365692
 S          4.7432715999        0.1754638594        0.6827216392
 O          6.1078342099        0.2359441593        0.2090402090
 O          4.5562888401        0.2397764894        2.1089885792
 C          3.7733362200        1.4261987896       -0.1396889807
 C          2.4581792800        1.6053764997        0.2386691995
 C          1.6849226901        2.5265889098       -0.4493302004
 C          2.2357830900        3.2500918598       -1.4952993605
 C          3.5606195700        3.0612493796       -1.8604573306
 C          4.3370911699        2.1360413595       -1.1823654207
 H          5.3690852299        1.9520836894       -1.4347137509
 H          3.9868289500        3.6269414796       -2.6735639907
 H          1.6279178301        3.9632723498       -2.0299030404
 H          0.6510848001        2.6447370399       -0.1679385003
 H          2.0404076401        1.0273674298        1.0467410695
 H          4.2761436095       -1.3244670905       -0.8803176108
 H          3.3940085298       -1.9113302704        2.5510188493
 H          1.1143778498       -2.6089529401        3.2461834496
 H         -0.7040801804       -2.7013783299        1.5887077798
 C         -0.6422976606       -2.1184619499       -1.0134327002
 H         -0.9415089507       -3.1766797498       -1.0982568602
 C         -0.2748142107       -1.6575905399       -2.4182519903
 C         -1.2488174207       -0.9081389598       -3.2766262601
 C         -0.0373303505       -0.2121688499       -2.7375033003
 H          0.7564555394        0.0408415500       -3.4256404904
 H         -0.1634105004        0.4958823801       -1.9342663502
 H         -2.2119737906       -0.6662111097       -2.8510794900
 H         -1.2857439108       -1.1433177698       -4.3299380801
 H          0.3507938992       -2.3803023300       -2.9334549103
 O         -0.7008645701        0.4832114901        0.3265038398
