  62
        -98.93953361
 C         -2.4415544795       -0.9515733792       -0.5875046766
 C         -3.6543002706       -0.8442513465        0.1448852547
 C         -4.4758673240        0.3433180717       -0.1164992709
 C         -4.0586320350        1.2398484060       -1.0284456592
 C         -4.7652193749        2.5213632754       -1.3601186733
 C         -4.2581942155        3.6771207552       -0.4862202062
 C         -4.2165833230        3.3506438063        1.0067231400
 H         -3.4671584698        2.5751073506        1.1821086235
 H         -3.8758293613        4.2487144413        1.5264879998
 C         -5.5601911829        2.8983669000        1.5956145025
 H         -5.7179233327        3.4152398666        2.5445318529
 H         -6.3734462139        3.1889411171        0.9296158403
 C         -5.6535927842        1.3989739583        1.8851107959
 H         -6.5441805737        1.2253568785        2.4949688149
 H         -4.7878919860        1.0847815994        2.4738630399
 C         -5.7567464548        0.4869998480        0.6560079043
 H         -6.0089045231       -0.5176247695        1.0077677364
 H         -6.5616695880        0.8353036657        0.0056186240
 H         -3.2468827274        3.9364646563       -0.8076913604
 H         -4.9007766660        4.5434328446       -0.6533215293
 H         -4.5740432250        2.7585174987       -2.4080015679
 H         -5.8356083155        2.3865093527       -1.2175465719
 O         -2.9050429763        1.0960901408       -1.7253201684
 C         -2.0611157928        0.0144325709       -1.5188500997
 O         -1.0353933616        0.0501608235       -2.2288595995
 O         -4.0341049457       -1.7107291007        0.9769325342
 C         -1.5824870087       -2.1731289843       -0.3037682236
 C         -0.4252667464       -1.8229573022        0.6020665638
 C         -0.3819257707       -2.2888783731        1.9108998833
 C          0.6814194021       -1.9702108509        2.7377085344
 C          1.7187000352       -1.1767139075        2.2814315568
 C          1.6823359142       -0.7024109085        0.9763720843
 C          0.6203420950       -1.0325758660        0.1462159613
 H          0.5895716184       -0.6483895284       -0.8628055814
 N          2.7124734308        0.1409208703        0.5006631254
 S          4.2794650537       -0.4903073209        0.4847610559
 O          4.3758672428       -1.5757715926       -0.4687918382
 O          4.6648393187       -0.8027982833        1.8369143383
 C          5.1909414225        0.9238835777       -0.0983890767
 C          5.5323399669        1.0106864471       -1.4339977145
 C          6.2125021566        2.1329746559       -1.8802692864
 C          6.5339495739        3.1448073470       -0.9883814330
 C          6.1840176347        3.0429400144        0.3499658708
 C          5.5051862712        1.9230379788        0.8024881686
 H          5.2197673019        1.7971341734        1.8336506049
 H          6.4378423742        3.8312949010        1.0401194653
 H          7.0625208781        4.0172998725       -1.3386410398
 H          6.4875381698        2.2137341164       -2.9196307493
 H          5.2682674482        0.1972015914       -2.0908327850
 H          2.4967954449        0.4675146503       -0.4336179918
 H          2.5562992334       -0.9309762122        2.9129815559
 H          0.7017672855       -2.3409083610        3.7515297503
 H         -1.1953357571       -2.8964788184        2.2809027057
 H         -2.2391514109       -2.8598372531        0.2472649807
 C         -1.1029392959       -2.8753067991       -1.5591131983
 C         -0.6480226129       -4.2996506691       -1.4642949675
 C         -1.9358808212       -3.9680280185       -2.1554724826
 H         -1.9823705164       -4.0505732489       -3.2309495819
 H         -2.8608249386       -4.2202718936       -1.6577197254
 H          0.1947473758       -4.6113242818       -2.0622235573
 H         -0.6993595369       -4.7768269502       -0.4972204158
 H         -0.5764924896       -2.2253811082       -2.2457584293
