  62
        -98.94431503
 C         -2.6309388309       -1.1037335837        0.1931633273
 C         -2.7232425890       -0.2977965848       -0.9676625504
 C         -3.5538401489        0.9063841456       -0.8395056083
 C         -4.1781511312        1.1701220698        0.3228164269
 C         -5.0817529456        2.3420188403        0.5965283947
 C         -4.3401115979        3.6259676611        0.9933597543
 C         -3.5869556057        4.3199170743       -0.1423590305
 H         -4.2614395078        4.4684354470       -0.9860316220
 H         -3.2977769854        5.3077598520        0.2217687455
 C         -2.3273353254        3.5781918588       -0.6118084543
 H         -1.5011058336        4.2863131393       -0.7069506390
 H         -2.0339290291        2.8457201295        0.1441899263
 C         -2.4740822960        2.8676467331       -1.9575280677
 H         -1.5396466136        2.3423437381       -2.1715441472
 H         -2.6348252175        3.6064190839       -2.7455823319
 C         -3.6147964062        1.8427704439       -2.0082214821
 H         -4.5779977213        2.3512646740       -2.0410707210
 H         -3.4996936444        1.2469165666       -2.9167518091
 H         -5.0836666016        4.3227931073        1.3869934024
 H         -3.6444166815        3.3918276061        1.8028414864
 H         -5.7041678425        2.5355250862       -0.2774646621
 H         -5.7283205469        2.0483205961        1.4263040843
 O         -4.0688599642        0.3639175878        1.4135705723
 C         -3.2767400608       -0.7735043950        1.3832756743
 O         -3.2280767370       -1.3954171625        2.4654187853
 H         -0.3346253953       -0.3207302475        1.0792521904
 C          0.2416503207       -0.9249821532        0.3876693095
 C         -0.3570817913       -2.0324494502       -0.2005508767
 C          0.4006509864       -2.8079486479       -1.0682537740
 C          1.7117892970       -2.4660038726       -1.3516955905
 C          2.2954498068       -1.3511014189       -0.7797167679
 C          1.5519703873       -0.5756431749        0.1005605234
 N          2.1353706360        0.5649742404        0.6823687759
 S          3.6021437981        0.3726501453        1.4797524731
 O          3.7393893357       -0.9614253194        2.0172084427
 O          3.6587406497        1.4588502128        2.4338774843
 C          4.8202832047        0.6498443814        0.2115412183
 C          5.7824711889       -0.3084079350       -0.0402326355
 C          6.7272669982       -0.0660635493       -1.0253958048
 C          6.6934607023        1.1237650360       -1.7363454198
 C          5.7214921584        2.0767302412       -1.4696299599
 C          4.7748343247        1.8413714139       -0.4854799063
 H          4.0053175682        2.5560846060       -0.2454459942
 H          5.6979813557        3.0005890370       -2.0248706480
 H          7.4288192616        1.3099140914       -2.5030991255
 H          7.4835406575       -0.8055023646       -1.2342407108
 H          5.7655077527       -1.2208383940        0.5341806133
 H          1.4959306224        1.0979434366        1.2538416499
 H          3.3131294952       -1.0769379502       -1.0046428942
 H          2.2859662519       -3.0748368132       -2.0331859975
 H         -0.0368755342       -3.6796397148       -1.5262392236
 C         -1.7840545472       -2.3621737645        0.1687614923
 H         -1.7842308832       -2.7511889386        1.1983672705
 C         -2.4185705059       -3.3941876320       -0.7414022036
 C         -2.2612393260       -4.8567404690       -0.4564358494
 C         -3.5822483483       -4.1869260344       -0.2296366988
 H         -4.3962007562       -4.4040032230       -0.9048441791
 H         -3.8970173708       -4.0022870147        0.7876023492
 H         -2.1715472441       -5.5379978361       -1.2891304894
 H         -1.6821706792       -5.1387621959        0.4100944907
 H         -2.4487115453       -3.0714050694       -1.7756724516
 O         -2.1457725315       -0.5671261296       -2.0517298669
