  62
        -98.93976509
 C         -2.2205808475       -0.7886421471        0.1235507995
 C         -2.4302148924        0.3727997003        0.9049927537
 C         -3.1432607210        1.4706139953        0.2433341967
 C         -3.5048438979        1.3479777008       -1.0469882552
 C         -4.2151541022        2.3886862891       -1.8695038325
 C         -5.7402087529        2.3870984319       -1.6956663446
 C         -6.2441349147        2.9380009521       -0.3610678676
 H         -5.8010992144        3.9183891095       -0.1832734750
 H         -7.3219591116        3.0809411587       -0.4605783527
 C         -5.9772314142        2.0238572784        0.8429280059
 H         -5.7458878714        1.0158426966        0.4909712164
 H         -6.8812244439        1.9500387171        1.4516855093
 C         -4.8507451547        2.4975125933        1.7614196807
 H         -5.1301764285        3.4462174234        2.2249375617
 H         -4.7240865796        1.7585896482        2.5568194799
 C         -3.4975290140        2.6763049286        1.0607252235
 H         -3.5125233825        3.5691828186        0.4361702636
 H         -2.7277908485        2.7966418758        1.8270329638
 H         -6.1058649728        1.3664974859       -1.8301634784
 H         -6.1596339133        2.9984693439       -2.4979597467
 H         -3.8216546838        3.3771612995       -1.6308321570
 H         -3.9875939520        2.1662445039       -2.9142143666
 O         -3.2362433546        0.2353510040       -1.7802800995
 C         -2.6042459389       -0.8639848261       -1.2158687052
 O         -2.4444532919       -1.8181752467       -1.9992331402
 H          0.4381404456       -0.2024936594        0.5713465028
 C          0.7214061136       -1.1265063175        0.0819336735
 C         -0.1802864351       -2.1849001867        0.0763577181
 C          0.1938884451       -3.3701901108       -0.5402792970
 C          1.4325230511       -3.4792517510       -1.1500999890
 C          2.3201608078       -2.4198835380       -1.1558750777
 C          1.9604328370       -1.2317425350       -0.5310752865
 N          2.8479277331       -0.1361273963       -0.5392539444
 S          4.4533179769       -0.4528414280       -0.1124973550
 O          5.1165868551       -1.0541019575       -1.2417583197
 O          4.5007527745       -1.2063548276        1.1212642816
 C          5.0719283393        1.1983116007        0.1403661892
 C          5.1455433846        1.7070982004        1.4229892187
 C          5.6075478135        3.0012636272        1.6047329885
 C          5.9820425729        3.7608902763        0.5066513126
 C          5.9025079281        3.2358586272       -0.7748066875
 C          5.4431761963        1.9422184142       -0.9635198636
 H          5.3730368369        1.4893631205       -1.9386362601
 H          6.1970520010        3.8290260133       -1.6254335307
 H          6.3412659222        4.7675515612        0.6511630521
 H          5.6733982903        3.4109075759        2.5998778961
 H          4.8513047898        1.0780074808        2.2479329600
 H          2.4888159987        0.6338285158        0.0098842277
 H          3.2875306763       -2.4986684757       -1.6246469130
 H          1.7102898270       -4.4050977920       -1.6312294996
 H         -0.4839065386       -4.2075241111       -0.5512462079
 C         -1.5121379572       -1.9744080292        0.7547889995
 H         -1.3144868435       -1.6735134073        1.7944748365
 C         -2.4008384391       -3.1989310452        0.7648551020
 C         -2.1649787723       -4.2842487181        1.7710182755
 C         -3.3599951839       -3.3895412538        1.9000359039
 H         -4.3366241743       -3.7973711628        1.6866895934
 H         -3.3599391311       -2.6443996163        2.6822963578
 H         -2.3221171954       -5.3091836690        1.4710867017
 H         -1.3518263865       -4.1495550035        2.4682902368
 H         -2.7376445704       -3.4818788109       -0.2257028311
 O         -2.0322589587        0.4895674497        2.0961322186
