  62
        -98.94414987
 C         -2.5048710501       -1.1655164569       -0.0658356015
 C         -3.2194096253       -0.4088557872        0.8926516900
 C         -4.0374634754        0.6873139066        0.3621313718
 C         -4.0757954322        0.9095009772       -0.9646953556
 C         -4.8809694766        1.9734112180       -1.6605862771
 C         -4.1962783524        3.3464155139       -1.7044636716
 C         -4.1497519009        4.0928165838       -0.3705881905
 H         -3.8415826147        5.1176551133       -0.5865527785
 H         -5.1524928814        4.1373107023        0.0553084119
 C         -3.1793414868        3.4929786952        0.6567401150
 H         -2.4811004124        2.8227736095        0.1490159881
 H         -2.5846829637        4.2910736456        1.1075100184
 C         -3.8552919090        2.7318823947        1.7976013134
 H         -3.0760761738        2.3221997158        2.4462655903
 H         -4.4568867706        3.4225833338        2.3924811664
 C         -4.7500793339        1.5720942497        1.3401944058
 H         -5.6716857712        1.9575371464        0.9049832254
 H         -5.0009751224        0.9673348686        2.2151478023
 H         -3.1806241672        3.2181389695       -2.0859585013
 H         -4.7452350504        3.9615741766       -2.4209461860
 H         -5.0275214529        1.6295955528       -2.6866324211
 H         -5.8562018298        2.0668188425       -1.1822230488
 O         -3.3760746217        0.1566593152       -1.8541820182
 C         -2.5559659941       -0.8800825796       -1.4305577882
 O         -1.9442486105       -1.4573027416       -2.3479969273
 O         -3.1718380639       -0.6355366510        2.1327319801
 C         -1.6201600197       -2.3039839199        0.4065181897
 C         -0.1792015069       -2.0342644794        0.0464754086
 C          0.6626152838       -2.9902805092       -0.5057353993
 C          1.9800219281       -2.6800426335       -0.7974838625
 C          2.4869341272       -1.4193637003       -0.5438904400
 C          1.6582025230       -0.4586651037        0.0215406270
 C          0.3412022899       -0.7737704149        0.3157598146
 H         -0.3021140757       -0.0236273825        0.7610733454
 N          2.1655269743        0.8290807303        0.2798965331
 S          3.5419460445        0.9364113513        1.2403630983
 O          3.6184272026       -0.1629458885        2.1747816058
 O          3.5011678644        2.2645333339        1.8125610159
 C          4.8875303055        0.8453112963        0.0787891272
 C          5.8544727217       -0.1305096866        0.2213558238
 C          6.8984572514       -0.1767412630       -0.6895384735
 C          6.9564779883        0.7486610392       -1.7203742676
 C          5.9784863676        1.7240179300       -1.8478365699
 C          4.9330134542        1.7768387836       -0.9399136016
 H          4.1554249586        2.5199636805       -1.0009412464
 H          6.0268556292        2.4417210206       -2.6509170548
 H          7.7686627228        0.7099026896       -2.4289785097
 H          7.6598636178       -0.9337987961       -0.5920950656
 H          5.7637708822       -0.8323451036        1.0349209635
 H          1.4646015564        1.4764823876        0.6111491484
 H          3.5094390569       -1.1723474854       -0.7781103804
 H          2.6202212657       -3.4315494325       -1.2335393144
 H          0.2865826975       -3.9786959263       -0.7118606865
 H         -1.6988481271       -2.2976669728        1.5047054518
 C         -2.1391508440       -3.6296538412       -0.1089729517
 C         -1.9149010401       -4.8860684409        0.6766870270
 C         -3.2841319858       -4.2820819658        0.6041379239
 H         -4.0404294421       -4.7812951956        0.0173455373
 H         -3.6716161486       -3.7820523443        1.4800103800
 H         -1.7332272121       -5.8047713130        0.1396751801
 H         -1.3739323283       -4.8039544531        1.6074013455
 H         -2.1240469532       -3.6893459322       -1.1913094255
