  62
        -98.93666139
 C          1.2402028457        0.9737181337        0.2418842779
 C          1.6066624169       -0.2298827529        0.8881113198
 C          2.6673871514       -1.0128634301        0.2432969113
 C          3.1741763734       -0.5889606122       -0.9287694006
 C          4.2880966744       -1.2641235037       -1.6744097169
 C          5.6567615674       -0.7082701100       -1.2561985602
 C          5.8626113913       -0.6470579202        0.2572676426
 H          6.8710290389       -0.2666512197        0.4331443589
 H          5.1655119263        0.0790179384        0.6815076314
 C          5.6910718913       -1.9926478259        0.9758146333
 H          6.5090199081       -2.1166649023        1.6885901310
 H          5.7618853923       -2.8087075558        0.2558205743
 C          4.3879210192       -2.1274599097        1.7655429202
 H          4.2675164871       -1.2632592217        2.4236620758
 H          4.4645189508       -3.0145253207        2.3999023167
 C          3.1121704637       -2.2752208401        0.9264721921
 H          3.2374505137       -3.0810149965        0.1997420118
 H          2.2974270939       -2.5526586396        1.6021697086
 H          5.7555555693        0.3031561975       -1.6569531987
 H          6.4329637254       -1.3297964407       -1.7062953811
 H          4.1426475089       -1.0867268774       -2.7414705125
 H          4.2446898982       -2.3356340357       -1.4874982361
 O          2.7534614815        0.5400977787       -1.5529346300
 C          1.7749264745        1.3503375840       -0.9904372778
 O          1.4764932263        2.3433870278       -1.6769151175
 O          1.0663961532       -0.6315216740        1.9556387635
 C          0.1574863867        1.8425902309        0.8691993660
 C         -0.9823023346        1.9794806984       -0.1143382926
 C         -1.6582140802        3.1300927379       -0.4982558495
 C         -2.7121655932        3.0624464666       -1.3967769040
 C         -3.1387399553        1.8580743860       -1.9205296637
 C         -2.4719590947        0.6960790093       -1.5469245794
 C         -1.4142804720        0.7722362035       -0.6598604135
 H         -0.8888816186       -0.1352750462       -0.4080863366
 N         -2.8500322950       -0.5548344243       -2.0524859352
 S         -2.6187653456       -1.9444507133       -1.1564712091
 O         -1.2235503168       -2.3081990815       -1.1367598934
 O         -3.5102052036       -2.9064596752       -1.7706226118
 C         -3.2099350630       -1.5502943930        0.4805300723
 C         -4.5678189678       -1.3341570757        0.6216411273
 C         -5.0700739243       -0.9920016349        1.8657734674
 C         -4.2084780512       -0.8670370937        2.9454664857
 C         -2.8503760147       -1.0931389870        2.7894088647
 C         -2.3416058556       -1.4397416216        1.5468301485
 H         -1.2855847623       -1.6131976925        1.4057844020
 H         -2.1725340118       -0.9972797414        3.6227649185
 H         -4.5962292854       -0.5950663560        3.9144691818
 H         -6.1272893016       -0.8217086757        1.9899226028
 H         -5.2061765122       -1.4529922003       -0.2387071106
 H         -3.7071469682       -0.5705421935       -2.5837558834
 H         -3.9615159974        1.8139559763       -2.6169922012
 H         -3.2136463057        3.9731153536       -1.6877017049
 H         -1.3727702823        4.0971139762       -0.1274615550
 H         -0.2345850369        1.2334806307        1.7029685811
 C          0.8263000925        3.0478891989        1.5126646009
 C          1.0759734928        4.3653377095        0.8495204395
 C          0.1275562644        4.2782698470        2.0097148017
 H          0.4546857233        4.6868549646        2.9547194643
 H         -0.9314568166        4.3806204919        1.8420025485
 H          2.0374263336        4.8320139165        1.0094575020
 H          0.7009039938        4.5045158294       -0.1509265882
 H          1.6338370798        2.6920149699        2.1502557274
