  62
        -98.94209052
 C         -0.5961480432       -1.4474682489        0.0522847775
 C         -1.3884068758       -0.8503316689        1.0566544622
 C         -2.4297371166        0.0953791305        0.6105978970
 C         -2.5360913895        0.3667185006       -0.7038516491
 C         -3.5732543928        1.2060546238       -1.4013257852
 C         -4.9297890336        0.4900133409       -1.5087253273
 C         -5.3953525941       -0.2021391970       -0.2304254149
 H         -6.3150055736       -0.7454580341       -0.4633056023
 H         -4.6507885618       -0.9420205178        0.0690742093
 C         -5.6883980825        0.7274516708        0.9451617603
 H         -6.4552498382        1.4474121404        0.6509106427
 H         -6.1025322644        0.1124279221        1.7482871051
 C         -4.4895693077        1.4953970795        1.5071536251
 H         -4.7887161495        1.9003988529        2.4784538526
 H         -4.2435267265        2.3482631478        0.8803954431
 C         -3.2486197874        0.6429926269        1.7547347993
 H         -3.5260870219       -0.2211238316        2.3693709138
 H         -2.5454289345        1.2160413198        2.3722161935
 H         -4.8504260443       -0.2715429594       -2.2882380826
 H         -5.6791839522        1.2181504090       -1.8235781580
 H         -3.6857665174        2.1637411678       -0.9039624967
 H         -3.1990411915        1.3894262098       -2.4102698612
 O         -1.6932877170       -0.1742021135       -1.6290842407
 C         -0.7202417442       -1.0945070623       -1.2906670224
 O         -0.0471155503       -1.5144692168       -2.2506329611
 O         -1.2538920294       -1.1116599637        2.2845792206
 C          0.4226088930       -2.5014922797        0.4394703729
 C          1.8055618009       -2.1249800861       -0.0292249101
 C          2.6953531904       -3.0391635309       -0.5788573980
 C          3.9598766774       -2.6352608228       -0.9704667771
 C          4.3645141037       -1.3228046683       -0.8175254483
 C          3.4823538553       -0.3999526201       -0.2643496926
 C          2.2175661475       -0.8075078170        0.1262436384
 H          1.5383415043       -0.0922069283        0.5669822575
 N          3.8519916807        0.9414981820       -0.1323156965
 S          3.0610968936        2.0164468485        0.8545963006
 O          3.9177213079        3.1840645081        0.8547603466
 O          2.7721060442        1.4559540029        2.1543571471
 C          1.5576401460        2.4161670241       -0.0086288687
 C          1.6050750756        2.6044131329       -1.3752125891
 C          0.4530478320        2.9967301029       -2.0366822692
 C         -0.7166426638        3.2056875054       -1.3234318802
 C         -0.7503106032        3.0050178961        0.0473747600
 C          0.3964143792        2.6039296230        0.7131054493
 H          0.4098315212        2.4244050680        1.7772353368
 H         -1.6605252144        3.1602075255        0.6038068826
 H         -1.6071946278        3.5259374243       -1.8400735498
 H          0.4711377229        3.1408901482       -3.1049842019
 H          2.5324731904        2.4404624254       -1.8984667829
 H          4.8159036104        1.1713345509       -0.3150251520
 H          5.3497722138       -1.0083455555       -1.1253062316
 H          4.6409630924       -3.3542833002       -1.3997996476
 H          2.3991154722       -4.0675799183       -0.7038900398
 H          0.4305148486       -2.5127742993        1.5405425651
 C         -0.0322353757       -3.8592149374       -0.0582934269
 C          0.3021114507       -5.1033715918        0.7075703497
 C         -1.1032354654       -4.5839749682        0.6985585305
 H         -1.8529470548       -5.1262861743        0.1421578489
 H         -1.4808403195       -4.1113402471        1.5937490622
 H          0.5156336914       -6.0070096294        0.1566561014
 H          0.8758038665       -4.9929239103        1.6154574233
 H         -0.0604610872       -3.9140856503       -1.1411117403
