  62
        -98.93962765
 C         -1.1051907068       -1.4347718603        0.0678821657
 C         -1.9544358558       -0.9873993517        1.1056964259
 C         -2.7429810269        0.2209111522        0.8211253271
 C         -2.5920957595        0.8352078610       -0.3667618301
 C         -3.3835681089        2.0231547126       -0.8355911362
 C         -4.7901328185        1.5741240187       -1.2815142590
 C         -5.9292815998        2.1223364054       -0.4219524872
 H         -6.0898622906        3.1732180987       -0.6718840147
 H         -6.8358544563        1.5775337847       -0.6939923845
 C         -5.7272587458        2.0274833261        1.0935682667
 H         -5.0794989344        2.8384398102        1.4300269875
 H         -6.7021632546        2.1974021118        1.5555928822
 C         -5.1616963221        0.6996625147        1.6139356424
 H         -5.3826424877       -0.1114533898        0.9197638391
 H         -5.6668961218        0.4604711027        2.5520744127
 C         -3.6505351410        0.7190029625        1.9119814261
 H         -3.3501785549        1.7284730955        2.2070596426
 H         -3.4553260128        0.0581489341        2.7620370752
 H         -4.9619783368        1.8847990138       -2.3130533364
 H         -4.8203826247        0.4826684035       -1.2732405811
 H         -3.4538140142        2.7582328902       -0.0368762110
 H         -2.8450113096        2.4643837349       -1.6736486165
 O         -1.7426692920        0.3909917653       -1.3272874991
 C         -0.9705919982       -0.7447529765       -1.1375797168
 O         -0.2257097715       -1.0269973078       -2.0918910603
 O         -2.0414033459       -1.5658955711        2.2240755335
 C         -0.2493005460       -2.6690091888        0.2925308540
 C          1.2053277322       -2.2768653763        0.2162500882
 C          2.1376480056       -2.9088178079       -0.5944450315
 C          3.4454815560       -2.4552153945       -0.6448330757
 C          3.8529510276       -1.3726222240        0.1124110439
 C          2.9299581382       -0.7426412519        0.9376613727
 C          1.6229904359       -1.1975282823        0.9865604296
 H          0.9047825813       -0.6996335105        1.6268887482
 N          3.3307292513        0.3705591207        1.7106336949
 S          3.8059358618        1.7221666752        0.8402161413
 O          5.0577203521        1.4377164219        0.1869652819
 O          3.8148348110        2.8089923279        1.7933892222
 C          2.5233612878        1.9764053946       -0.3716301898
 C          2.6278422247        1.3719514829       -1.6079481282
 C          1.6038389889        1.5434273309       -2.5249271921
 C          0.5000658381        2.3117814207       -2.1914825108
 C          0.4063094490        2.9064227876       -0.9428371342
 C          1.4239212016        2.7333322677       -0.0193749576
 H          1.3919995598        3.1849760552        0.9596665665
 H         -0.4578472130        3.4977229577       -0.6841530929
 H         -0.2959082628        2.4361859990       -2.9084046367
 H          1.6614766127        1.0664663392       -3.4894770143
 H          3.5037020229        0.7858222952       -1.8332336060
 H          2.6323241100        0.6469511124        2.3870788310
 H          4.8616098873       -0.9947479662        0.0688744076
 H          4.1572213816       -2.9509897318       -1.2873206668
 H          1.8395688612       -3.7499556115       -1.1980585463
 H         -0.4648455326       -2.9944009103        1.3209529353
 C         -0.6370370875       -3.7772625709       -0.6621769080
 C         -0.3993400430       -5.2090811880       -0.2885221994
 C         -1.7943312221       -4.6626160654       -0.3133806458
 H         -2.4593682180       -4.9775500813       -1.1034649660
 H         -2.2916395425       -4.4825792141        0.6286720264
 H         -0.1083711186       -5.9033108349       -1.0622684327
 H          0.0501363224       -5.4069181437        0.6728172356
 H         -0.5221433430       -3.4916415378       -1.7014648511
