  62
        -98.94509927
 C          2.5599994012        0.0555498352        0.3810794324
 C          2.2626648854       -0.5734407724       -0.8519105006
 C          1.9983109743       -2.0173860105       -0.7870623182
 C          2.0672612440       -2.6485472830        0.3987066652
 C          1.8465755493       -4.1194008205        0.6044397439
 C          0.3912051062       -4.4439240891        0.9630210868
 C         -0.6401120484       -3.8122454492        0.0280571683
 H         -0.6468872155       -2.7292578893        0.1708026676
 H         -1.6220092693       -4.1762477644        0.3404760471
 C         -0.4330891226       -4.1223502385       -1.4607894177
 H         -1.4044691251       -4.3528108915       -1.9031158257
 H          0.1945220075       -5.0075283916       -1.5746668343
 C          0.1600635432       -2.9656993415       -2.2685564811
 H         -0.3743115899       -2.0441197724       -2.0221136330
 H         -0.0012083800       -3.1714882317       -3.3303487662
 C          1.6613783106       -2.7161840619       -2.0734238105
 H          1.9975722583       -2.0475227272       -2.8713689444
 H          2.2081109962       -3.6579365869       -2.1601246512
 H          0.1948012622       -4.0858687662        1.9765904364
 H          0.2735043862       -5.5298005915        0.9569857838
 H          2.1327570561       -4.6484278771       -0.3028545676
 H          2.4915262964       -4.4463293295        1.4226086418
 O          2.3494839258       -2.0085895256        1.5642059918
 C          2.5740360213       -0.6418634983        1.5867387060
 O          2.7864059002       -0.1734259488        2.7262828461
 H          0.2361359058        0.9311487110        0.5803898457
 C          0.3853904283        1.8372090786        0.0111189703
 C          1.6748490971        2.3152366756       -0.1812364927
 C          1.8435524442        3.4967165251       -0.8921375894
 C          0.7456808458        4.1664091755       -1.4052446443
 C         -0.5331228716        3.6708126013       -1.2354427352
 C         -0.7119739937        2.4841063604       -0.5304544520
 N         -1.9927943336        1.9228170930       -0.4022270607
 S         -2.2836702576        0.6126721630        0.6044965359
 O         -2.0281482762        0.9616164653        1.9870531017
 O         -1.5860459381       -0.5371162966        0.0905263679
 C         -4.0366972826        0.4234922145        0.3441511833
 C         -4.4720639426       -0.3466260887       -0.7172420296
 C         -5.8340372751       -0.4697492195       -0.9420785644
 C         -6.7331656240        0.1771581142       -0.1073715333
 C         -6.2817849338        0.9445835470        0.9559406936
 C         -4.9208768743        1.0715321692        1.1859467271
 H         -4.5244293149        1.6466952378        2.0072933841
 H         -6.9831117650        1.4429428681        1.6055730846
 H         -7.7925583843        0.0796378855       -0.2845135677
 H         -6.1879611396       -1.0689559292       -1.7653833463
 H         -3.7351865501       -0.8361592105       -1.3328288933
 H         -2.7463440346        2.5942354279       -0.4123049077
 H         -1.3858306770        4.1851203647       -1.6506017818
 H          0.8901556228        5.0858397934       -1.9521090844
 H          2.8345012881        3.8920724729       -1.0454540620
 C          2.8282722173        1.5481017791        0.4209878034
 H          2.8972735706        1.8171507353        1.4865712197
 C          4.1545187520        1.8552125671       -0.2472384431
 C          5.0222893995        2.9689609898        0.2547399711
 C          5.4217226472        1.5440823072        0.4890940738
 H          6.2554230904        1.1404270274       -0.0653882799
 H          5.3242824311        1.1405169697        1.4868693977
 H          4.6675813758        3.5379809777        1.1009759745
 H          5.5877338515        3.5450554354       -0.4622107078
 H          4.1332280980        1.6595931917       -1.3132769918
 O          2.2365790591        0.0369072213       -1.9530615355
