  62
        -98.94016194
 C         -2.4361102469       -0.8724671696        0.0925929826
 C         -2.7077258560        0.5128808092        0.1968819961
 C         -4.0969811190        0.8673835179        0.5233135981
 C         -4.9990133352       -0.1114658746        0.7210039617
 C         -6.4554405450        0.1085108528        1.0089598402
 C         -7.2782818315        0.1430477157       -0.2864698334
 C         -6.7027551310        1.0688866825       -1.3580660019
 H         -5.7425582576        0.6710705092       -1.6946281818
 H         -7.3808056087        1.0373997962       -2.2136700090
 C         -6.5168594722        2.5240321710       -0.9058551760
 H         -6.8877072671        3.1849932373       -1.6920533472
 H         -7.1149411704        2.7142328213       -0.0140251772
 C         -5.0648559155        2.9238615641       -0.6365473682
 H         -4.4438940696        2.6486799498       -1.4929101202
 H         -5.0241346955        4.0120745507       -0.5397562109
 C         -4.4314690773        2.3288370549        0.6275760253
 H         -3.4791532964        2.8405692223        0.7952761596
 H         -5.0786292633        2.5164385908        1.4867366873
 H         -7.3218834220       -0.8687943953       -0.6959123650
 H         -8.2951328266        0.4547443737       -0.0412343723
 H         -6.8102613442       -0.7139014654        1.6322928307
 H         -6.5755337463        1.0429485600        1.5534742938
 O         -4.6928646306       -1.4317671468        0.6349321474
 C         -3.4116005959       -1.8447990816        0.3105919319
 O         -3.2669210813       -3.0833259873        0.2568864630
 O         -1.8378996175        1.4072021484        0.0284243430
 C         -1.0389981997       -1.3427742161       -0.2642859911
 C         -0.0262622183       -0.8261887139        0.7292722803
 C         -0.3133051990       -0.8903638422        2.0906532678
 C          0.6015711505       -0.4509416895        3.0273619689
 C          1.8330280445        0.0401231038        2.6303327072
 C          2.1325112242        0.1024371180        1.2753127151
 C          1.2038456458       -0.3244828101        0.3355587314
 H          1.4654246786       -0.2625329041       -0.7074402778
 N          3.3672170892        0.6058504109        0.8349859931
 S          4.0775690495       -0.1015952910       -0.5242232186
 O          3.5506514626        0.5262601507       -1.7095357163
 O          3.9562032444       -1.5401786493       -0.4536879869
 C          5.7782318500        0.3843015386       -0.2917252154
 C          6.6546507041       -0.4963954682        0.3139854837
 C          7.9680379652       -0.1027570775        0.5166365921
 C          8.3799923762        1.1590321317        0.1149257304
 C          7.4891318166        2.0318073275       -0.4922182720
 C          6.1747150465        1.6442677182       -0.6988101355
 H          5.4498065821        2.2843812406       -1.1741890513
 H          7.8139932014        3.0108063285       -0.8056887460
 H          9.4026722274        1.4629851606        0.2729957457
 H          8.6636417836       -0.7802752432        0.9850818821
 H          6.2919747214       -1.4704166920        0.6008396186
 H          4.0327098626        0.7293661099        1.5857130232
 H          2.5510557472        0.3770926071        3.3625000960
 H          0.3587854396       -0.5010090119        4.0783203767
 H         -1.2696244967       -1.2881204131        2.4036680697
 H         -1.0557837919       -2.4406599880       -0.1843722647
 C         -0.7155247086       -0.9674231439       -1.6959262700
 C          0.2275262168       -1.8051409282       -2.5042825036
 C         -1.2391514867       -1.8194336804       -2.8112244717
 H         -1.5827066609       -1.3358527773       -3.7133391103
 H         -1.8102527929       -2.6951770982       -2.5382330334
 H          0.8981586157       -1.3082029526       -3.1899662998
 H          0.6591449464       -2.6732423512       -2.0282576481
 H         -0.7003072322        0.1061507102       -1.8499581962
