  62
        -98.93786469
 C          2.6145255083        0.0124534591        0.4349533232
 C          2.1821157032       -0.5620038534       -0.7827278797
 C          1.7563935875       -1.9737315748       -0.7348812718
 C          1.7739713735       -2.6278888971        0.4412622754
 C          1.4319146061       -4.0586433469        0.8040237328
 C          0.8426369401       -5.0020992786       -0.2392733459
 C         -0.6130147546       -4.7068891584       -0.6077926009
 H         -0.8773607659       -5.3031329359       -1.4835598106
 H         -1.2475430769       -5.0312702894        0.2207383530
 C         -0.9472082428       -3.2427095617       -0.8851876598
 H         -2.0273292823       -3.1653276273       -1.0429559508
 H         -0.7195802360       -2.6287780633       -0.0109057342
 C         -0.2669114316       -2.6281283160       -2.1056498664
 H         -0.6522598675       -1.6091891640       -2.2099154244
 H         -0.5406091882       -3.1884338722       -3.0029836781
 C          1.2643779360       -2.5445447993       -2.0341118006
 H          1.7194068930       -3.5113859915       -2.2361146222
 H          1.5973235801       -1.8525068975       -2.8138138715
 H          0.8753620627       -6.0066995238        0.1908623865
 H          1.4740493072       -5.0180184056       -1.1228454107
 H          0.7525033861       -3.9984933099        1.6606477769
 H          2.3645005695       -4.4926355722        1.1812466344
 O          2.1920488559       -2.0241996619        1.5948431004
 C          2.5842231808       -0.7000401005        1.6299637842
 O          2.8833667635       -0.2793547813        2.7682061954
 O          2.1648179180        0.0707808833       -1.8709006344
 C          2.9948562225        1.4826380048        0.4881317364
 C          1.7943240007        2.2945794512        0.0642583816
 C          1.8345484076        3.3289134271       -0.8611857626
 C          0.6700365221        3.9680479861       -1.2537357972
 C         -0.5578966611        3.5869245857       -0.7417004097
 C         -0.6011497608        2.5778964539        0.2073429113
 C          0.5644491277        1.9549845039        0.6140307066
 H          0.5086724420        1.1514475561        1.3396252999
 N         -1.8663827793        2.1208647110        0.7011471404
 S         -2.1639307176        0.5399808118        0.1684449239
 O         -1.6027959440       -0.4215472781        1.0972794232
 O         -1.7511695393        0.4485529378       -1.2078921058
 C         -3.9445260227        0.4916626121        0.2569043610
 C         -4.5786048372       -0.2872440432        1.2039679647
 C         -5.9640031820       -0.2758895749        1.2629653527
 C         -6.6859765469        0.5135439569        0.3814530009
 C         -6.0342631848        1.2915052019       -0.5644853485
 C         -4.6506212897        1.2823702797       -0.6293148269
 H         -4.0986473557        1.8630489177       -1.3496372358
 H         -6.5990777668        1.9034532432       -1.2491443284
 H         -7.7633659376        0.5217561900        0.4309973230
 H         -6.4725504528       -0.8813414473        1.9959547603
 H         -3.9757293300       -0.8869990924        1.8670513176
 H         -1.8852541904        2.1029617236        1.7132030241
 H         -1.4738763620        4.0516662922       -1.0674594662
 H          0.7193190067        4.7596138992       -1.9858541885
 H          2.7782024905        3.6202287684       -1.2934368942
 H          3.2075748303        1.7039466121        1.5447422589
 C          4.2366454451        1.7556549099       -0.3324189355
 C          5.1429579795        2.8929160589        0.0294014108
 C          5.5788750412        1.4803141057        0.2735061545
 H          6.3503531952        1.0602208556       -0.3538663565
 H          5.5972067125        1.1161382005        1.2906600909
 H          5.6209776379        3.4439974458       -0.7661869893
 H          4.8741318062        3.4937392654        0.8850069972
 H          4.1011283481        1.5169887021       -1.3807321554
