  62
        -98.94142308
 C         -1.2380096724       -1.1202043787       -0.0676422853
 C         -1.6573476022       -0.0547761210        0.7617562890
 C         -2.7125689432        0.8188612296        0.2252032955
 C         -3.1750152259        0.6037546813       -1.0180864626
 C         -4.2042583853        1.3961855438       -1.7850009972
 C         -5.4630307675        1.8444314022       -1.0291210897
 C         -5.9380814209        0.8836483484        0.0708190040
 H         -7.0005073981        0.6786986555       -0.0729042364
 H         -5.4084511345       -0.0671095176       -0.0095060706
 C         -5.7561979779        1.4526791217        1.4800443311
 H         -6.0613283494        2.5013407618        1.4756950594
 H         -6.4234192366        0.9206411977        2.1623336928
 C         -4.3437922858        1.3456523792        2.0536041396
 H         -4.1139305794        0.3005083546        2.2775803911
 H         -4.3231699202        1.8894745389        3.0010162767
 C         -3.2210162422        1.8851048416        1.1521642330
 H         -3.5396357269        2.7715928340        0.6086972299
 H         -2.3757575115        2.1584078176        1.7901675492
 H         -5.2937913097        2.8279794062       -0.5927928012
 H         -6.2513859040        1.9636820094       -1.7743158206
 H         -3.7065842417        2.2743981606       -2.2076879727
 H         -4.4889328659        0.7547784174       -2.6227259696
 O         -2.7080086109       -0.4075877903       -1.8041078466
 C         -1.7332445598       -1.2873575497       -1.3592801160
 O         -1.4045507756       -2.1532921433       -2.1926243867
 H          0.8285499331        0.1860403633       -0.6147742008
 C          1.4618361642       -0.6580559032       -0.8393479664
 C          1.0904979319       -1.9260418835       -0.4146921408
 C          1.9062981455       -2.9998013564       -0.7494927398
 C          3.0523715254       -2.7992545091       -1.4996327803
 C          3.4257911907       -1.5310365726       -1.9063826059
 C          2.6191577011       -0.4496826461       -1.5711019447
 N          2.9545089702        0.8588443506       -1.9505129704
 S          2.6213484363        2.1201730070       -0.9031080512
 O          1.2165757976        2.4436879048       -0.9319452421
 O          3.5171725114        3.1764585971       -1.3256664033
 C          3.1160187528        1.5185939911        0.7023771372
 C          2.1807173613        1.2078743380        1.6674494286
 C          2.6161874962        0.6900186014        2.8777908495
 C          3.9691205703        0.4933827012        3.1026614177
 C          4.8981711004        0.8198203188        2.1258305431
 C          4.4695488852        1.3342407280        0.9139765883
 H          5.1608089581        1.6104570031        0.1343909860
 H          5.9509256826        0.6715633921        2.3042185316
 H          4.3001737172        0.0858962114        4.0448448415
 H          1.8850380376        0.4385512671        3.6297025799
 H          1.1302918476        1.3597489648        1.4732165387
 H          3.8571088423        0.9594596159       -2.3906607667
 H          4.3235446380       -1.3772532562       -2.4849708343
 H          3.6706013553       -3.6436027834       -1.7637908213
 H          1.6402066009       -3.9943341409       -0.4312201211
 C         -0.1547290754       -2.0582325243        0.4284288259
 H          0.0936213353       -1.7048537228        1.4414921830
 C         -0.6732632859       -3.4781864338        0.5219322382
 C         -0.1502317103       -4.4091997078        1.5737579250
 C         -1.5378529209       -3.8558034201        1.6864194096
 H         -2.3757219206       -4.5147238759        1.5148008159
 H         -1.7273211779       -3.0947871539        2.4295315082
 H         -0.0367138371       -5.4538919721        1.3263028753
 H          0.6008210768       -4.0296156930        2.2497677084
 H         -0.9318290192       -3.8893703512       -0.4472876135
 O         -1.1618923091        0.1650340474        1.9003959584
