  62
        -98.94289416
 C         -2.1124677935       -1.5171282414        0.1024934724
 C         -1.7134966796       -0.3544422534       -0.6042333940
 C         -2.7547382327        0.6698430435       -0.7774307238
 C         -4.0005602207        0.4531951534       -0.3215599887
 C         -5.1712632628        1.3882917680       -0.4589811063
 C         -5.2376381921        2.4684085474        0.6295133406
 C         -4.1850449371        3.5719092418        0.5157433975
 H         -4.2068286443        3.9900907703       -0.4910692978
 H         -4.4793166307        4.3663450202        1.2044837397
 C         -2.7578803020        3.1224697292        0.8597884676
 H         -2.7961167532        2.1798871991        1.4107944998
 H         -2.2939745272        3.8581198721        1.5204019858
 C         -1.8355401367        2.9532461607       -0.3477141440
 H         -1.6781685375        3.9231539007       -0.8242830347
 H         -0.8699424623        2.5861599311        0.0092958890
 C         -2.3527933027        1.9696903092       -1.4052432740
 H         -3.1882789272        2.4057812263       -1.9523409076
 H         -1.5424799891        1.7613537985       -2.1076214227
 H         -5.1551363966        1.9851739144        1.6059558079
 H         -6.2261897439        2.9298879393        0.5705220339
 H         -5.1505494233        1.8604802136       -1.4416149047
 H         -6.0709789107        0.7730059773       -0.3880947179
 O         -4.3515647960       -0.6910324391        0.3245115829
 C         -3.4123926047       -1.6740244370        0.5916009234
 O         -3.8528288090       -2.6300779210        1.2613445087
 H          1.3335765090       -2.5332366960       -0.7854395524
 C          1.3261957173       -2.0544392384        0.1809933810
 C          0.1594421617       -2.0238341720        0.9262550469
 C          0.1690998100       -1.3646348586        2.1522554922
 C          1.3187152443       -0.7561754754        2.6189693692
 C          2.4827000012       -0.7864189157        1.8707721572
 C          2.4791795288       -1.4324177753        0.6420533588
 N          3.6477175992       -1.4596692505       -0.1355787323
 S          4.6077207516       -0.0949001461       -0.2117346337
 O          5.3362795195       -0.2234570158       -1.4550261964
 O          5.4178356458       -0.0106488920        0.9794240729
 C          3.5068240041        1.3068500453       -0.2887775639
 C          3.6033394147        2.2996047742        0.6650721632
 C          2.7610045045        3.3961284652        0.5792152326
 C          1.8425632761        3.4804852263       -0.4554756873
 C          1.7577099387        2.4741494459       -1.4051393666
 C          2.5956742197        1.3749662302       -1.3234676550
 H          2.5440821717        0.5790679191       -2.0481950759
 H          1.0360790038        2.5341571651       -2.2034875738
 H          1.1878458298        4.3350950389       -0.5232446801
 H          2.8231449965        4.1798641879        1.3171060334
 H          4.3346441240        2.1951627955        1.4503285498
 H          3.5218805254       -1.8692925874       -1.0493247330
 H          3.3893320527       -0.3211479311        2.2218338283
 H          1.3102870884       -0.2496162366        3.5722664602
 H         -0.7440681527       -1.3271020124        2.7312037470
 C         -1.1313550747       -2.6297307550        0.4347717234
 H         -1.5921903179       -3.1758328716        1.2739112760
 C         -0.9308672773       -3.6431443242       -0.6822297825
 C         -2.0698334844       -4.0300115363       -1.5762113103
 C         -0.9121777141       -3.2575690279       -2.1298775282
 H         -0.2250563240       -3.7706832768       -2.7875281375
 H         -1.0568875738       -2.2172734876       -2.3745905666
 H         -3.0102143767       -3.5170280525       -1.4362298335
 H         -2.1771492114       -5.0685116212       -1.8512384890
 H         -0.2623407818       -4.4449310828       -0.3823495844
 O         -0.5643117452       -0.1652317969       -1.0760859711
