  62
        -98.94725467
 C          0.9428661192        1.5469585497       -0.8722901601
 C          2.2516177296        1.5196405399       -0.3244231009
 C          3.0417186696        0.3115546100       -0.5756328613
 C          2.5106661792       -0.6893392201       -1.2995330209
 C          3.1668129892       -2.0069523301       -1.6096807612
 C          3.0168675400       -3.0363267500       -0.4806059111
 C          3.9021427307       -2.7896363398        0.7417206484
 H          3.8861051712       -3.7046270898        1.3375240684
 H          4.9318343405       -2.6258670298        0.4207045977
 C          3.4413227811       -1.6230004998        1.6271044686
 H          2.3956177910       -1.3891975800        1.4092096492
 H          3.4794673418       -1.9285019898        2.6759649386
 C          4.2834396409       -0.3529220198        1.4986221780
 H          5.2927612812       -0.5449506596        1.8712502074
 H          3.8316040012        0.4181218202        2.1281264482
 C          4.3884613000        0.2024033502        0.0727568679
 H          4.8125427599        1.2082811502        0.1294091275
 H          5.0493966297       -0.4232529498       -0.5269758025
 H          3.2640779398       -4.0176812500       -0.8930939811
 H          1.9716711302       -3.0589541401       -0.1596857004
 H          4.2241049390       -1.8545976500       -1.8284602819
 H          2.6783622687       -2.3982505602       -2.5047819109
 O          1.2774661889       -0.6063670603       -1.8566416501
 C          0.4474162089        0.4831828196       -1.6270450897
 O         -0.6725382814        0.3653049995       -2.1631188890
 O          2.7364023799        2.4690686400        0.3499428287
 C          0.0752591094        2.7297364997       -0.4744748996
 C         -0.6557378498        2.3810267297        0.8026164608
 C         -0.6583622292        3.2332226497        1.9002062308
 C         -1.2670574285        2.8518331297        3.0834898612
 C         -1.8458070682        1.6011907597        3.2087420516
 C         -1.8495296188        0.7444394396        2.1143549217
 C         -1.2977125496        1.1567800996        0.9126048613
 H         -1.3284531401        0.4886470395        0.0679297214
 N         -2.3867473686       -0.5498363004        2.1862121621
 S         -1.5793752090       -1.7877115404        1.3868764117
 O         -1.9521231184       -2.9853220904        2.1160206520
 O         -0.1598181591       -1.5342394803        1.2975162208
 C         -2.3207888600       -1.8756972006       -0.2270911978
 C         -3.6218482501       -1.4524352207       -0.4073957271
 C         -4.1981180909       -1.5839293709       -1.6602387667
 C         -3.4719425215       -2.1397677509       -2.7018802771
 C         -2.1687321313       -2.5645534907       -2.5022040379
 C         -1.5856604306       -2.4324038606       -1.2529664683
 H         -0.5663405204       -2.7312245605       -1.0637635989
 H         -1.5983311618       -2.9860869007       -3.3143499582
 H         -3.9208823921       -2.2365932810       -3.6779955268
 H         -5.2098255510       -1.2473729910       -1.8215298361
 H         -4.1544929597       -1.0163770008        0.4215679632
 H         -2.6946282780       -0.8388625004        3.1035153523
 H         -2.2801312076        1.2853749897        4.1450691519
 H         -1.2632492580        3.5229718498        3.9289466711
 H         -0.1589517094        4.1881836698        1.8315063804
 H          0.7738013894        3.5466651997       -0.2459435401
 C         -0.8900638614        3.2051341495       -1.5403651391
 C         -1.3826083815        4.6197526794       -1.4980249089
 C         -0.4232848421        4.1915515595       -2.5667842994
 H         -0.7839618327        4.0881060094       -3.5787574292
 H          0.5994289779        4.5335844296       -2.5013132801
 H         -2.4070405217        4.8146476393       -1.7748937282
 H         -1.0102581611        5.2584754595       -0.7116425291
 H         -1.5807242315        2.4383665694       -1.8651326686
