  62
        -98.93345159
 C         -1.9927674652       -1.0343214402        0.6690349366
 C         -1.9097883221       -0.2960465845       -0.5375020776
 C         -2.1359359915        1.1545503108       -0.4266919630
 C         -2.3338110084        1.7007287353        0.7854175735
 C         -2.6311943723        3.1485318333        1.0565656291
 C         -4.1012473184        3.4638098333        0.7131602415
 C         -4.2815730211        4.4336191378       -0.4548685819
 H         -5.3351293622        4.4087707767       -0.7407677443
 H         -4.0554922711        5.4457499060       -0.1132316881
 C         -3.4223840771        4.1535319102       -1.6913299240
 H         -2.4085322833        4.5208260961       -1.5254318893
 H         -3.8391412645        4.7449579514       -2.5092588785
 C         -3.3438559267        2.6866709029       -2.1335663017
 H         -4.2130847303        2.1311829585       -1.7808212937
 H         -3.3692647678        2.6587222805       -3.2247291696
 C         -2.0613796465        1.9528454105       -1.6985465027
 H         -1.7946077626        1.2224115908       -2.4683809995
 H         -1.2318347868        2.6623367131       -1.6271018765
 H         -4.5956856393        3.8867128889        1.5889446703
 H         -4.6083700198        2.5229690173        0.4894081289
 H         -2.4405354462        3.3238705385        2.1157822918
 H         -1.9560701591        3.7726696296        0.4748924078
 O         -2.3583021645        0.9663805220        1.9295216458
 C         -2.1718169055       -0.4054467858        1.9017217273
 O         -2.1879660491       -0.9456764631        3.0276095663
 H          0.6120892396       -1.3380998383        1.0332168379
 C          0.6631803323       -2.0619836553        0.2309991121
 C         -0.4650747310       -2.8074360923       -0.0899376298
 C         -0.3781386227       -3.7357338438       -1.1178562930
 C          0.8045283437       -3.8859882260       -1.8220074250
 C          1.9099520237       -3.1093667857       -1.5302005331
 C          1.8353236846       -2.1854028006       -0.4928867959
 N          2.9428546458       -1.3864096115       -0.1539546700
 S          2.6552975574        0.1722214594        0.4290088130
 O          2.3699434810        0.0928796455        1.8412998469
 O          1.6768065784        0.8548719948       -0.3869744100
 C          4.2697322997        0.8923590558        0.1883187736
 C          4.5236784636        1.6144996335       -0.9625058897
 C          5.7910703864        2.1406225606       -1.1582897107
 C          6.7786564723        1.9336642254       -0.2069158182
 C          6.5087707609        1.2072437808        0.9434393455
 C          5.2434163244        0.6793365171        1.1456800026
 H          4.9826192833        0.1162671928        2.0265949802
 H          7.2778247003        1.0508065406        1.6824517434
 H          7.7640569061        2.3436743379       -0.3617569521
 H          6.0023143328        2.7084823250       -2.0500067110
 H          3.7215340061        1.7562829228       -1.6692100658
 H          3.6543077373       -1.3829627917       -0.8726090118
 H          2.8211650081       -3.2095434536       -2.1001268705
 H          0.8581629074       -4.6045231388       -2.6259153986
 H         -1.2425121971       -4.3190045497       -1.3894978286
 C         -1.7175288391       -2.5293984272        0.7054823946
 H         -1.4947831093       -2.7471298891        1.7641489921
 C         -2.8989044687       -3.4068337806        0.3216752430
 C         -4.3060315587       -2.9143008318        0.4788753977
 C         -3.7390657455       -3.1382185995       -0.8891257001
 H         -4.0994636869       -3.9828465117       -1.4580877436
 H         -3.4835446585       -2.2806468585       -1.4902955413
 H         -5.0513708527       -3.6018476299        0.8497846341
 H         -4.4422009115       -1.8971499720        0.8177748993
 H         -2.7267907791       -4.4485448838        0.5748033791
 O         -1.6662908620       -0.8124222338       -1.6590173577
