  62
        -98.93460180
 C          2.0963046759        1.2589013074       -0.0300686781
 C          2.4219469197        0.0273050362       -0.6465950895
 C          3.8282561813       -0.4123596645       -0.5355253071
 C          4.7146480195        0.3447145629        0.1356098519
 C          6.2018907520        0.1753866239        0.3663097542
 C          6.8857033486       -1.1644222750        0.1068384693
 C          6.4684556709       -2.2899157621        1.0529309631
 H          6.8566492145       -2.0675908379        2.0501437658
 H          6.9390748433       -3.2146387212        0.7118510109
 C          4.9645240514       -2.5176166316        1.1850514793
 H          4.4960648780       -1.6333436739        1.6221111749
 H          4.8114291813       -3.3414181047        1.8875697571
 C          4.2394126129       -2.8733911983       -0.1114615416
 H          3.2173692225       -3.1605612229        0.1512100759
 H          4.7197443684       -3.7366988475       -0.5762974184
 C          4.1473597246       -1.7437548963       -1.1519324103
 H          3.3187214451       -1.9767444469       -1.8272782945
 H          5.0516443239       -1.6836851558       -1.7529984999
 H          7.9575248905       -0.9979869919        0.2452890874
 H          6.7459187779       -1.4652092768       -0.9273126424
 H          6.3759516686        0.4701335203        1.4060705391
 H          6.6874119628        0.9367184288       -0.2544764542
 O          4.3496317532        1.5220617122        0.7234299003
 C          3.0503448516        1.9926040296        0.6780687044
 O          2.8721907632        3.0580757862        1.3010353077
 O          1.5973705068       -0.6834820709       -1.2763297683
 C          0.6846608727        1.8225172638       -0.0377276935
 C         -0.3022323702        0.7355753935        0.3079420053
 C         -0.3200814893        0.2358402748        1.6068837593
 C         -1.1909816735       -0.7758734707        1.9645738077
 C         -2.0649051788       -1.3100702908        1.0343909884
 C         -2.0557541714       -0.8172482789       -0.2634743523
 C         -1.1879741765        0.2078249980       -0.6177079527
 H         -1.1747252532        0.5630290153       -1.6361341172
 N         -2.9391561813       -1.3570261557       -1.2123620358
 S         -4.5330777695       -1.5915353651       -0.7713145234
 O         -4.6561470412       -2.7998131715        0.0054930098
 O         -5.2787859454       -1.5580351470       -2.0098361343
 C         -4.9376663575       -0.1779563975        0.2398962633
 C         -4.9057794193        1.0702573923       -0.3502668197
 C         -5.1734991437        2.1860651215        0.4253844793
 C         -5.4642676213        2.0358151923        1.7729508673
 C         -5.4965196972        0.7759889295        2.3496613690
 C         -5.2288983182       -0.3438353817        1.5782075889
 H         -5.2434698310       -1.3409414238        1.9870129702
 H         -5.7251521858        0.6623715812        3.3970994529
 H         -5.6679666230        2.9066864604        2.3758332870
 H         -5.1514412697        3.1673449955       -0.0209453067
 H         -4.6840338702        1.1502603096       -1.4023415701
 H         -2.8572231904       -0.9513924890       -2.1323287698
 H         -2.7379765338       -2.1127513953        1.2885801158
 H         -1.1872145853       -1.1570276122        2.9745696363
 H          0.3706201975        0.6451846199        2.3318888712
 H          0.6735626487        2.5596035830        0.7815000826
 C          0.3199934218        2.5823883810       -1.3045032133
 C          1.3508622250        3.3882084206       -2.0355428568
 C          0.7755510868        2.1577980793       -2.6670319618
 H          0.0937366993        2.2815108105       -3.4963519150
 H          1.3937466448        1.2771647653       -2.7398599029
 H          1.0662607301        4.3523273220       -2.4292250061
 H          2.3662174383        3.3494202635       -1.6684025769
 H         -0.6717377148        3.0197250251       -1.2373686760
