  62
        -98.93881417
 C          1.6474836094        1.5290958979        0.3158524573
 C          1.2896625207        0.4201941448       -0.4867373280
 C          1.9402606444       -0.8585543241       -0.1613979010
 C          2.7779198067       -0.9210056079        0.8882474427
 C          3.5547383032       -2.1326087464        1.3193358775
 C          4.7581669127       -2.3596388059        0.3822915943
 C          4.6815723440       -3.6468708596       -0.4387266665
 H          5.4589229578       -3.5943124797       -1.2038932941
 H          4.9126006152       -4.4949672503        0.2091495557
 C          3.3347993951       -3.9240445626       -1.1128788644
 H          3.5042330307       -4.7099460766       -1.8519341935
 H          2.6340578754       -4.3297158534       -0.3814257254
 C          2.6773211243       -2.7251593603       -1.8079723030
 H          2.2259598847       -3.0781661841       -2.7372350458
 H          3.4261491498       -1.9809424545       -2.0796362411
 C          1.5560426359       -2.0474946611       -0.9985771572
 H          0.8062662930       -1.6656012012       -1.6977275605
 H          1.0575293148       -2.7853715114       -0.3624205038
 H          4.8355622876       -1.5015824945       -0.2885767814
 H          5.6767802537       -2.3824491478        0.9705039669
 H          3.8944673822       -1.9511720607        2.3395730632
 H          2.8986982350       -3.0007349897        1.3238470334
 O          3.0739636574        0.1580859834        1.6595126882
 C          2.5018339079        1.3942142559        1.4110008951
 O          2.8266939820        2.2826332114        2.2257132756
 H         -0.6045565458        1.4603378160        1.6756719932
 C         -1.1554044585        1.9115755307        0.8621907193
 C         -0.4896466722        2.7044100027       -0.0656633442
 C         -1.2241605955        3.2716766912       -1.0986111585
 C         -2.5835532851        3.0312629366       -1.2069883885
 C         -3.2311981438        2.2023725814       -0.3098129573
 C         -2.5038405216        1.6308982242        0.7280649932
 N         -3.1031060971        0.7498034551        1.6546065366
 S         -2.5780186261       -0.8430953732        1.6268553075
 O         -3.3522133580       -1.5114293870        2.6520235720
 O         -1.1462246959       -0.8952061582        1.7731547470
 C         -3.0857309105       -1.4463900886        0.0256977828
 C         -4.2449464722       -2.1941640933       -0.0610436369
 C         -4.6839679905       -2.6115220105       -1.3067757248
 C         -3.9646838774       -2.2665635953       -2.4414074601
 C         -2.8075867404       -1.5107498584       -2.3366683123
 C         -2.3588577296       -1.0916161801       -1.0928992163
 H         -1.4590336690       -0.5043524346       -0.9908882758
 H         -2.2440870995       -1.2361165838       -3.2140234592
 H         -4.3068479381       -2.5879476344       -3.4125534615
 H         -5.5834934409       -3.2001393454       -1.3888821838
 H         -4.7685382616       -2.4390057192        0.8490777159
 H         -4.1140653060        0.7570265125        1.6239628251
 H         -4.2851881957        1.9911880484       -0.4115876234
 H         -3.1411317803        3.4785110494       -2.0156438314
 H         -0.7304029752        3.8854536706       -1.8337946789
 C          0.9974145472        2.8892904071        0.1209841775
 H          1.1508542251        3.4143437226        1.0790459881
 C          1.6451346980        3.7486289817       -0.9548754825
 C          3.0690015276        3.5263290357       -1.3676477439
 C          1.9557247099        3.2141146990       -2.3195233396
 H          1.8138478852        3.8652097470       -3.1696938636
 H          1.7175352232        2.1805551989       -2.5125192307
 H          3.6869684580        4.3909959309       -1.5585414927
 H          3.5999334726        2.7040399774       -0.9094754189
 H          1.3232681127        4.7837689278       -0.8961994290
 O          0.4625961093        0.4838215192       -1.4340904155
