  62
        -98.93907328
 C          0.9840215435        1.5401212027       -0.5906859058
 C          2.2163122754        1.8140316637        0.0555483236
 C          3.2838622516        0.8088316426       -0.0800123027
 C          3.0387622270       -0.3032662307       -0.7941044045
 C          3.9507892395       -1.4798626250       -1.0079420196
 C          3.7076246721       -2.5576919334        0.0621934747
 C          4.5292934027       -2.3967603230        1.3400063567
 H          4.1826610836       -3.1532462555        2.0476108355
 H          5.5787118167       -2.6078420822        1.1238402920
 C          4.4328949240       -1.0216793785        2.0049554873
 H          3.3958793935       -0.6807728348        1.9969643125
 H          4.7294890066       -1.1311984203        3.0499162671
 C          5.3314970956        0.0320621219        1.3413255121
 H          6.0244055974       -0.4638966312        0.6619731748
 H          5.9427733065        0.5200606137        2.1036064657
 C          4.5852827955        1.1467263360        0.5959755860
 H          5.2569710420        1.5892803674       -0.1478302434
 H          4.3320361297        1.9467587841        1.2988510938
 H          3.9403912335       -3.5344430263       -0.3663609436
 H          2.6434907235       -2.5461975184        0.3072689276
 H          3.6958097731       -1.8942407130       -1.9852539286
 H          4.9899756650       -1.1647662028       -1.0228175657
 O          1.8447694130       -0.5269553602       -1.4054977321
 C          0.7972966469        0.3767458074       -1.3376859369
 O         -0.2072335477        0.0171687617       -1.9817957293
 O          2.4182752983        2.8660433442        0.7214456210
 C         -0.1094385230        2.5822753180       -0.4329657089
 C         -1.0834685067        2.2042079371        0.6579953460
 C         -1.3067917799        3.0548036708        1.7343828481
 C         -2.2123450429        2.7139826832        2.7233640944
 C         -2.9112903134        1.5231256499        2.6550764058
 C         -2.6882026130        0.6598871700        1.5865828734
 C         -1.7779470734        1.0035959700        0.5978999315
 H         -1.6189220959        0.3355228931       -0.2330091117
 N         -3.3455042582       -0.5725674028        1.5250834199
 S         -3.5968170012       -1.4001313260        0.0985533981
 O         -3.9743156061       -0.5169778559       -0.9796671194
 O         -4.5853051255       -2.3994731301        0.4554447716
 C         -2.0638587128       -2.2352911579       -0.2413478265
 C         -1.7218924598       -2.4908646366       -1.5528016629
 C         -0.5698600155       -3.2139238646       -1.8166919787
 C          0.2150556345       -3.6672321705       -0.7697429845
 C         -0.1407497982       -3.3989124744        0.5434606869
 C         -1.2925618232       -2.6789650354        0.8142490254
 H         -1.5949653034       -2.4510325498        1.8232487956
 H          0.4753467458       -3.7488713772        1.3571397913
 H          1.1120943339       -4.2287607218       -0.9792829701
 H         -0.2852517872       -3.4092247606       -2.8380650964
 H         -2.3485280233       -2.1047989294       -2.3405064833
 H         -4.0757226573       -0.7243814866        2.2039567505
 H         -3.6206525252        1.2563551295        3.4234357791
 H         -2.3786026649        3.3831745516        3.5537929700
 H         -0.7573330276        3.9824824536        1.7971846613
 H          0.4103773196        3.4965789544       -0.1148468567
 C         -0.8610037409        2.8832701753       -1.7150921423
 C         -1.4923765069        4.2309329148       -1.8877691342
 C         -0.2836060901        3.8600780104       -2.6927741239
 H         -0.4019647518        3.6631826451       -3.7476357401
 H          0.6593073080        4.3220650914       -2.4379308022
 H         -2.4468038458        4.2898275843       -2.3882170598
 H         -1.3683093970        4.9493416609       -1.0915375735
 H         -1.3878826206        2.0270188156       -2.1168353117
