  62
        -98.93685903
 C          1.4028368702        0.9862834392       -0.3972306518
 C          2.7559270702        1.3805784891       -0.5343421424
 C          3.7720808702        0.3145701692       -0.4760510514
 C          3.3819253503       -0.9544164006       -0.2550950098
 C          4.1703942003       -2.2463864305       -0.1993760185
 C          5.6928216303       -2.2285021104       -0.0937168987
 C          6.2341122505       -1.6969884988        1.2330992905
 H          5.9995606007       -2.4201520279        2.0183009214
 H          7.3216108705       -1.6302495289        1.1571616203
 C          5.6825748306       -0.3438168583        1.6750792591
 H          4.6066381506       -0.4231948681        1.8434576993
 H          6.1408237707       -0.0936611172        2.6358738387
 C          5.9507434804        0.8157507106        0.7178630577
 H          5.6471305605        1.7368025912        1.2229606766
 H          7.0211910104        0.8848764304        0.5143467274
 C          5.1999980902        0.7556835390       -0.6235686421
 H          5.7238388101        0.1287181082       -1.3415103715
 H          5.1672881901        1.7684565785       -1.0361957033
 H          6.0242696603       -3.2658006905       -0.1926751576
 H          6.1222360801       -1.6812335813       -0.9278072995
 H          3.8935492301       -2.7997684616       -1.1035620578
 H          3.7594997704       -2.8098905595        0.6441597023
 O          2.0692763103       -1.2790616204       -0.0754849392
 C          1.0500998003       -0.3365862004       -0.1290741802
 O         -0.0794170897       -0.8093897302        0.0812336506
 O          3.1064280701        2.5790196189       -0.7070893639
 C          0.3365789902        2.0625504991       -0.4925079528
 C         -0.6738263896        1.8935928904        0.6121596875
 C         -0.2777566794        2.1266118419        1.9265256672
 C         -1.1628630992        1.9512725031        2.9722619876
 C         -2.4597280393        1.5342791728        2.7294916483
 C         -2.8655136295        1.3023755313        1.4207141286
 C         -1.9773581497        1.4902580801        0.3711828382
 H         -2.3141675098        1.2957839189       -0.6324849515
 N         -4.1795603995        0.8996185310        1.1488577593
 S         -4.5631161697       -0.0611563405       -0.1577855295
 O         -4.4636258999        0.6982719280       -1.3799097104
 O         -5.8878240197       -0.5563236902        0.1590766113
 C         -3.4214770697       -1.4295472405       -0.1773490381
 C         -3.2321269595       -2.1505298192        0.9835095027
 C         -2.3841783195       -3.2442205992        0.9605400938
 C         -1.7482217097       -3.6007223706       -0.2175286659
 C         -1.9528550499       -2.8692533019       -1.3751040867
 C         -2.7962625599       -1.7713686119       -1.3567233178
 H         -2.9723092401       -1.1683674229       -2.2333968085
 H         -1.4495430901       -3.1423874230       -2.2894596265
 H         -1.0811077097       -4.4485481006       -0.2315625350
 H         -2.2152346894       -3.8116531282        1.8620384444
 H         -3.7425615794       -1.8541462081        1.8858044524
 H         -4.7397490794        0.6779910619        1.9580255296
 H         -3.1521813591        1.3894344738        3.5447046385
 H         -0.8406812391        2.1332281743        3.9865679873
 H          0.7402476606        2.4384761122        2.1174728767
 H          0.8785100102        3.0076631793       -0.3216445040
 C         -0.3051814000        2.1702333975       -1.8677507028
 C          0.4832458497        1.8981862661       -3.1126254627
 C         -0.6171066802        0.9672849665       -2.7043154214
 H         -1.5349255703        0.9705213559       -3.2750371212
 H         -0.3540303701       -0.0005584730       -2.3060828903
 H          0.3282296096        2.5374499551       -3.9687503434
 H          1.5040359298        1.5650249662       -2.9946496625
 H         -1.0157812201        2.9902568774       -1.9187140237
