  62
        -98.93730945
 C         -1.8150356599       -0.1478719103        0.4219828496
 C         -2.7424216598       -0.7077820806       -0.4878082902
 C         -4.0325889697       -0.0044146404       -0.6300006507
 C         -4.2671754496        1.1126359899        0.0816846287
 C         -5.4553319895        2.0517013901        0.1027736081
 C         -6.7966142095        1.6306880401       -0.4928816619
 C         -7.4965349198        0.4902272805        0.2451283585
 H         -7.8188883498        0.8548846410        1.2237879183
 H         -8.3912417697        0.2182377804       -0.3192483415
 C         -6.6538693800       -0.7620761195        0.4740565292
 H         -7.2765636102       -1.4919344192        0.9986674195
 H         -5.8154601800       -0.5243786093        1.1320826692
 C         -6.1187711799       -1.4310223002       -0.7906724004
 H         -6.9439528598       -1.6339565704       -1.4759503804
 H         -5.6848830201       -2.3900244601       -0.4955756499
 C         -5.0328161497       -0.6464978207       -1.5479171706
 H         -4.4729079797       -1.3553919711       -2.1643658402
 H         -5.4694144795        0.0926091891       -2.2151927010
 H         -6.6827707394        1.3886489896       -1.5454313818
 H         -7.4480510193        2.5073063402       -0.4387263824
 H         -5.1224335193        2.9635875899       -0.4056509423
 H         -5.5998644296        2.3218934707        1.1537245479
 O         -3.3343633697        1.6248450502        0.9381130986
 C         -2.1102416498        1.0156357801        1.1357102390
 O         -1.3830127198        1.5942130704        1.9691696689
 O         -2.5296382799       -1.7464954509       -1.1653563597
 C         -0.4448998800       -0.7551079004        0.6870931901
 C          0.5032622202       -0.4022502010       -0.4343115199
 C          0.4375241503       -1.0223639716       -1.6781887796
 C          1.3036805705       -0.6531282222       -2.6905240697
 C          2.2619767906        0.3228718777       -2.4802175800
 C          2.3341726105        0.9513163683       -1.2433072903
 C          1.4543915403        0.5888313089       -0.2324716103
 H          1.5084314303        1.1010899493        0.7170919195
 N          3.2976641107        1.9486812883       -0.9986557706
 S          4.2911896304        1.7774958387        0.3382202296
 O          3.5451456003        2.0041582294        1.5487162694
 O          5.3998521606        2.6723199184        0.0893398593
 C          4.8381060402        0.0826023186        0.2488852905
 C          5.9031934403       -0.2237266620       -0.5756791192
 C          6.2796732701       -1.5490502621       -0.7200058186
 C          5.5794561698       -2.5415094817       -0.0508599982
 C          4.5128504598       -2.2179396011        0.7733597415
 C          4.1362680799       -0.8930939910        0.9271601808
 H          3.3165240199       -0.5983547305        1.5620302006
 H          3.9685726796       -2.9900228708        1.2933661018
 H          5.8669517797       -3.5741557718       -0.1697471377
 H          7.1123533901       -1.8043158225       -1.3554014683
 H          6.4230910604        0.5795101977       -1.0723630796
 H          3.8514894708        2.1852013078       -1.8100580507
 H          2.9419459208        0.6061902472       -3.2694773001
 H          1.2368518305       -1.1361616827       -3.6534268095
 H         -0.3191537798       -1.7700159416       -1.8539871394
 H         -0.0791976601       -0.2598836500        1.5972528599
 C         -0.5019765403       -2.2476337902        0.9444804108
 C          0.6085419095       -2.8956688701        1.7124982913
 C         -0.7433558405       -2.7361729295        2.3396031510
 H         -1.3575741607       -3.6130176394        2.4795422213
 H         -0.8620259305       -1.9934058092        3.1159044306
 H          0.9262963994       -3.8850965802        1.4223914418
 H          1.4046529796       -2.2597854800        2.0695929311
 H         -0.9575619903       -2.8099897505        0.1410959510
