  62
        -98.94075542
 C         -1.0282581514       -1.4910148365       -0.0591551543
 C         -1.6030437873       -0.6590854175        0.9329748330
 C         -2.4824771783        0.4310909793        0.4764855215
 C         -2.6948418475        0.5918372870       -0.8428970946
 C         -3.4665954577        1.6461377572       -1.6089891455
 C         -4.4213718508        2.5934108544       -0.8874248908
 C         -5.6740194561        1.9244211584       -0.3216675623
 H         -6.2228093931        2.6647517464        0.2642711858
 H         -6.3111318984        1.6215551827       -1.1563981374
 C         -5.4262110343        0.6895771380        0.5407190711
 H         -6.3984228435        0.3023327141        0.8573004736
 H         -4.9510800875       -0.0876864499       -0.0613749623
 C         -4.5898364449        0.9276444483        1.7958927701
 H         -5.0378783462        1.7272049222        2.3888478945
 H         -4.6224775962        0.0109522719        2.3906850089
 C         -3.1095100928        1.2692233496        1.5537897246
 H         -2.5618971693        1.0436044044        2.4733552232
 H         -2.9753714779        2.3280667486        1.3443885436
 H         -3.8927882101        3.1389220833       -0.1112041931
 H         -4.7451732548        3.3310698853       -1.6267535261
 H         -2.7052491354        2.2424962018       -2.1258038705
 H         -4.0148384567        1.1087081965       -2.3897374550
 O         -2.1357143245       -0.2441210626       -1.7638603728
 C         -1.2889061735       -1.2865088666       -1.4145448499
 O         -0.8668253909       -1.9303905684       -2.3943776371
 O         -1.3780333515       -0.8117936269        2.1640672072
 C         -0.0778075472       -2.5677992444        0.4263787449
 C          1.3598572925       -2.0950994396        0.4243287559
 C          2.2614838807       -2.5827010468        1.3653156929
 C          3.5759454895       -2.1544594115        1.3716820707
 C          4.0118350651       -1.2065048866        0.4623680933
 C          3.1189425366       -0.7087635323       -0.4777780404
 C          1.8107968397       -1.1714990536       -0.5053443001
 H          1.1451443578       -0.7886241819       -1.2627208439
 N          3.5057587742        0.2852463218       -1.3970806592
 S          2.5532666990        1.6628276820       -1.4801159265
 O          1.3178801720        1.3897314137       -2.1680515985
 O          3.4118554571        2.6589020311       -2.0851601644
 C          2.2460213716        2.0712979171        0.2274555880
 C          1.0819276482        1.6386567624        0.8278994671
 C          0.9023166587        1.8603301129        2.1839202192
 C          1.8828247528        2.5178108192        2.9101929603
 C          3.0413913484        2.9615605176        2.2895727021
 C          3.2323510198        2.7285503451        0.9375900988
 H          4.1173289134        3.0559837587        0.4162943829
 H          3.7980945547        3.4787094116        2.8571386126
 H          1.7398537464        2.6847371306        3.9660655942
 H          0.0052992135        1.4947727055        2.6585902158
 H          0.3341403102        1.1334058075        0.2364644176
 H          4.4806874557        0.5442146016       -1.3336804489
 H          5.0311954648       -0.8525540555        0.4794311640
 H          4.2646548599       -2.5456570427        2.1043718582
 H          1.9232526976       -3.2963977558        2.1005591587
 H         -0.3585861077       -2.7540890538        1.4728910189
 C         -0.1907868334       -3.8733149668       -0.3381489036
 C          0.0687512119       -5.1739978972        0.3584150756
 C         -1.3272297844       -4.8036552711       -0.0413447496
 H         -1.7921241794       -5.3244483836       -0.8646965629
 H         -2.0193014228       -4.5115245602        0.7352030669
 H          0.5700326211       -5.9568487007       -0.1894819887
 H          0.3114347210       -5.1467726691        1.4094419322
 H          0.1169261826       -3.7849187027       -1.3724953220
