  62
        -98.93397927
 C          2.4953689003        1.4147963700        0.2270565789
 C          2.7769755201        0.4731420894       -0.7904931606
 C          3.9068832901       -0.4465087605       -0.5441965002
 C          4.5809327803       -0.3818095499        0.6182458897
 C          5.7823608203       -1.1531703397        1.1234406800
 C          6.2435736101       -2.4300445802        0.4257194406
 C          5.2759144500       -3.6072376500        0.5416809814
 H          5.6573652599       -4.4249505804       -0.0736840081
 H          5.2665293301       -3.9483951094        1.5798576516
 C          3.8320785300       -3.3155828601        0.1405066915
 H          3.4068966001       -2.5691471697        0.8147761711
 H          3.2556521199       -4.2350631100        0.2743719021
 C          3.6362104198       -2.8511541410       -1.3014172888
 H          2.5609104198       -2.8393144010       -1.5008952286
 H          4.0926851697       -3.5699616614       -1.9847848384
 C          4.1827065699       -1.4502097212       -1.6272532997
 H          5.2452258398       -1.4839151614       -1.8557388598
 H          3.6667962998       -1.0877170917       -2.5214083098
 H          7.1803036801       -2.7252478300        0.9061531807
 H          6.4752722900       -2.2281986408       -0.6159544595
 H          5.5712296604       -1.3755600191        2.1741914201
 H          6.6132591703       -0.4389617998        1.1216500794
 O          4.2556689005        0.5281384807        1.5827168692
 C          3.2296757105        1.4370961906        1.4155840888
 O          3.0700595907        2.2091819012        2.3814638684
 O          2.1341858700        0.3843841688       -1.8699303705
 C          1.4020532704        2.4658193200        0.1200857984
 C          0.0593182104        1.9184943604        0.5297248789
 C         -0.7361534794        2.5873962510        1.4520881987
 C         -1.9822445194        2.0928864113        1.7968142591
 C         -2.4597120396        0.9255787510        1.2283755498
 C         -1.6712600797        0.2486033904        0.3071831601
 C         -0.4217935597        0.7441770201       -0.0331139703
 H          0.1812348501        0.2223868796       -0.7620173101
 N         -2.1555163699       -0.9383467799       -0.2819716791
 S         -3.5594492600       -0.7714752403       -1.1972522790
 O         -3.5475615702       -1.8780031909       -2.1286565184
 O         -3.6559855800        0.5517152393       -1.7702117498
 C         -4.8693280099       -1.0211712296       -0.0179206187
 C         -4.9073523399       -2.2191914492        0.6685734820
 C         -5.9258319998       -2.4333344886        1.5834688822
 C         -6.8849241897       -1.4531662284        1.7925364818
 C         -6.8342788297       -0.2571562488        1.0929301211
 C         -5.8173306898       -0.0359538994        0.1770369808
 H         -5.7331981698        0.8797490403       -0.3859637197
 H         -7.5806452796        0.5033729014        1.2569539508
 H         -7.6766853696       -1.6228296879        2.5050389520
 H         -5.9687636898       -3.3619623782        2.1295159028
 H         -4.1449396600       -2.9546730193        0.4727154323
 H         -1.4527111700       -1.4099643903       -0.8350344089
 H         -3.4294083296        0.5358448112        1.4920296002
 H         -2.5888416993        2.6223365717        2.5153999689
 H         -0.3675777893        3.4965258812        1.9045276881
 H          1.6810074106        3.2394110504        0.8526491680
 C          1.3671162603        3.1347090192       -1.2496529119
 C          0.2445179701        2.9844073088       -2.2283182517
 C          0.4317286203        4.2801424392       -1.5012417125
 H          0.7952049003        5.1366536988       -2.0484344630
 H         -0.2791287895        4.5191560397       -0.7245650325
 H          0.5010420600        2.9320678381       -3.2758175617
 H         -0.6001262599        2.3663350890       -1.9636932212
 H          2.3606871102        3.2199677589       -1.6785988621
