  62
        -98.94437263
 C         -1.8685594080       -0.7941434678        0.1689659174
 C         -2.3735151144        0.5281678511        0.1568195575
 C         -3.7981555485        0.6699110621        0.4929001489
 C         -4.5169461535       -0.4256033858        0.7993166334
 C         -5.9865451924       -0.4301820255        1.1036790450
 C         -6.8164553703       -0.6486590243       -0.1691616765
 C         -6.4187788797        0.2630167644       -1.3299995553
 H         -5.4082695565        0.0059399568       -1.6558703802
 H         -7.0904896722        0.0419233277       -2.1623331731
 C         -6.4797370664        1.7628052492       -1.0084976113
 H         -6.9664573044        2.2796409540       -1.8383298844
 H         -7.0920917382        1.9272590257       -0.1211608918
 C         -5.1147160033        2.4248721540       -0.8110474896
 H         -5.2595485099        3.5086052504       -0.8067185159
 H         -4.4652282763        2.1861448632       -1.6571810484
 C         -4.3753378749        2.0573494697        0.4817233691
 H         -5.0354117796        2.2079927527        1.3384427089
 H         -3.5225161233        2.7356276268        0.5809498096
 H         -7.8689864783       -0.4925698904        0.0741049089
 H         -6.6916403483       -1.6853431274       -0.4901851217
 H         -6.1906316618       -1.2426223891        1.8030646609
 H         -6.2587120684        0.5146999698        1.5698967628
 O         -3.9897067436       -1.6764015761        0.8211676306
 C         -2.6598274563       -1.8937647997        0.5003264327
 O         -2.3047754103       -3.0886025978        0.5535761509
 O         -1.6747214121        1.5383026255       -0.1186813458
 C         -0.4161450896       -1.0520426842       -0.1925400796
 C          0.4909972675       -0.2488052166        0.7066015792
 C          0.2871609315       -0.3091519619        2.0836712177
 C          1.0721404652        0.4268930123        2.9482342653
 C          2.0889472757        1.2293146225        2.4601053175
 C          2.3101307823        1.2868919367        1.0902776605
 C          1.5206325976        0.5420846473        0.2224761248
 H          1.7069140492        0.6199132104       -0.8351639933
 N          3.3286683967        2.0990316865        0.5694054765
 S          4.2768292648        1.5543785685       -0.6913851462
 O          5.4761651193        2.3602272300       -0.6134465317
 O          3.5547078319        1.6176716681       -1.9361850016
 C          4.6534600791       -0.1402143242       -0.2801288099
 C          4.2038234991       -1.1615674954       -1.0901940174
 C          4.4833164762       -2.4718680750       -0.7352148779
 C          5.2018154123       -2.7360844905        0.4200427580
 C          5.6516816988       -1.6977733138        1.2218063993
 C          5.3760804341       -0.3865933320        0.8710744299
 H          5.7218508009        0.4440857010        1.4644392282
 H          6.2138749512       -1.9070962070        2.1175530947
 H          5.4143667220       -3.7570376459        0.6955049256
 H          4.1380862234       -3.2800327807       -1.3603988400
 H          3.6470222176       -0.9133155367       -1.9786517118
 H          3.8758097731        2.5875401724        1.2624826973
 H          2.6967609372        1.8152898467        3.1325339873
 H          0.8931860100        0.3768482012        4.0117128620
 H         -0.5100023698       -0.9334300240        2.4644088478
 H         -0.2389002004       -2.1193004350        0.0056056216
 C         -0.2035675185       -0.7893268453       -1.6687567467
 C          0.8157074401       -1.5711221663       -2.4388267036
 C         -0.6448618319       -1.8263845872       -2.6561317087
 H         -1.0965484454       -1.5000570028       -3.5810423603
 H         -1.0706283133       -2.7367031118       -2.2591430789
 H          1.3685924059       -1.0658763986       -3.2171491011
 H          1.3810315501       -2.3163347861       -1.9002446699
 H         -0.3598318903        0.2500350402       -1.9358615176
