  62
        -98.94264400
 C          2.1401041439        0.8834273117        0.1645470698
 C          2.6595626931        0.0072281135        1.1459092794
 C          3.0109432739       -1.3414937814        0.6829970399
 C          2.7807931750       -1.6761490872       -0.6000950960
 C          3.1205840288       -3.0033805193       -1.2126774601
 C          4.5293101587       -2.9914761926       -1.8224782212
 C          5.6027983352       -2.4401809766       -0.8839990240
 H          6.5583639124       -2.5086743735       -1.4081220894
 H          5.4086092672       -1.3800735108       -0.7057975561
 C          5.7042514414       -3.1701370057        0.4625916343
 H          5.2179376064       -4.1437569772        0.3932850215
 H          6.7582077108       -3.3487335987        0.6851599274
 C          5.1239449364       -2.3973600190        1.6484214156
 H          5.5385207781       -1.3863423724        1.6647161068
 H          5.4412077871       -2.8966014346        2.5677180357
 C          3.5942765877       -2.2909390583        1.6918870287
 H          3.1521121745       -3.2839453684        1.5870082778
 H          3.3162224189       -1.8927713211        2.6722928830
 H          4.7864458078       -4.0110706836       -2.1150820582
 H          4.5102764521       -2.3735536167       -2.7231428102
 H          3.0487267438       -3.7775419240       -0.4509931894
 H          2.3923450455       -3.2127483485       -1.9983834807
 O          2.2468735621       -0.8181110347       -1.5070747721
 C          1.9138166757        0.4804216201       -1.1521184512
 O          1.4363149276        1.1615286164       -2.0794798578
 O          2.8104197401        0.3347379580        2.3547578074
 C          1.7350234467        2.2895627170        0.5702684879
 C          0.2620847351        2.4815195194        0.3029204860
 C         -0.2694154832        3.5973696832       -0.3294574581
 C         -1.6273148994        3.6784202247       -0.5893647367
 C         -2.4830823828        2.6554405939       -0.2249963968
 C         -1.9633744084        1.5445168220        0.4237193090
 C         -0.6076740857        1.4702936528        0.6925679714
 H         -0.2095391170        0.5926123196        1.1892964814
 N         -2.8320726249        0.4808940183        0.7810734368
 S         -3.2578397423       -0.5293916483       -0.5108444066
 O         -2.3435962822       -1.6536061272       -0.5587679679
 O         -3.3831969104        0.2615400280       -1.7072023050
 C         -4.8668237632       -1.0892326927        0.0141261700
 C         -5.9450050738       -0.2457625946       -0.1705896057
 C         -7.1960413571       -0.6512591391        0.2652279929
 C         -7.3467365134       -1.8862620008        0.8784259531
 C         -6.2550206200       -2.7219255783        1.0571108114
 C         -5.0007355195       -2.3210476326        0.6236890811
 H         -4.1258244018       -2.9412694312        0.7342856602
 H         -6.3747473815       -3.6825004764        1.5318718665
 H         -8.3213695828       -2.2004507454        1.2170509689
 H         -8.0475024975       -0.0048028195        0.1260760674
 H         -5.7810504750        0.6999191369       -0.6599849868
 H         -2.4112297915       -0.1113148902        1.4863517603
 H         -3.5359871204        2.6953859132       -0.4492720720
 H         -2.0214011642        4.5478689143       -1.0932176806
 H          0.3829195334        4.3985685170       -0.6363113776
 H          1.9005376256        2.3415689777        1.6569692161
 C          2.6151254039        3.3175010774       -0.1082659085
 C          2.8813578973        4.6376662702        0.5496182699
 C          3.9664743570        3.6076416475        0.4706746430
 H          4.7916177045        3.7745602982       -0.2052374192
 H          4.2411842119        3.0813842604        1.3732614056
 H          2.9646031166        5.5157022917       -0.0727735751
 H          2.4240473514        4.8181278868        1.5105317475
 H          2.5281084535        3.2881262308       -1.1887938072
