  62
        -98.94713666
 C         -1.6251655589       -1.5235992236       -0.2369450242
 C         -2.8183663405       -1.2211067693        0.4677395517
 C         -3.6146670163       -0.1037575325       -0.0549567159
 C         -3.1793369633        0.5629059073       -1.1394924699
 C         -3.8651498077        1.7512676938       -1.7483845817
 C         -3.3551354089        3.0702797020       -1.1501785883
 C         -3.3020175180        3.0771744003        0.3773473875
 H         -2.5620754120        2.3475784852        0.7144538664
 H         -2.9497253435        4.0638515487        0.6856906729
 C         -4.6470146270        2.7862256188        1.0578139554
 H         -4.7891996022        3.4996228095        1.8722814083
 H         -5.4618968716        2.9387163853        0.3490086335
 C         -4.7622742436        1.3877961247        1.6668260906
 H         -3.8979180136        1.1935393971        2.3067339267
 H         -5.6512708231        1.3665592088        2.3028450675
 C         -4.8897817064        0.2333451957        0.6648583530
 H         -5.1641368335       -0.6648371877        1.2257923766
 H         -5.6891150665        0.4500285378       -0.0468582047
 H         -2.3493940827        3.2606801885       -1.5310787555
 H         -4.0038493989        3.8769001605       -1.4966555811
 H         -3.6677524917        1.7489977021       -2.8218776238
 H         -4.9380738764        1.6611240314       -1.5887644411
 O         -2.0314723573        0.2449195668       -1.7887780862
 C         -1.2240726242       -0.8004600273       -1.3598934253
 O         -0.2089448201       -0.9699721284       -2.0617697335
 O         -3.2000199790       -1.8600215416        1.4836368240
 C         -0.7507803272       -2.6478737501        0.2966788054
 C          0.5043390036       -2.0160129957        0.8437527728
 C          0.4949483369       -1.4717968004        2.1253491673
 C          1.5958095688       -0.7932381192        2.6141844517
 C          2.7198913689       -0.6187576630        1.8252933539
 C          2.7312909643       -1.1462374656        0.5411765524
 C          1.6413182468       -1.8622522571        0.0659532820
 H          1.6645890341       -2.2579470793       -0.9366552470
 N          3.8421050245       -0.9116434703       -0.2909893326
 S          4.3684838761        0.6770488721       -0.3708820811
 O          4.9075072535        0.8410177277       -1.7032301634
 O          5.2963050027        0.9236033985        0.7064925420
 C          2.9200319254        1.6993354780       -0.1461054695
 C          2.9387752025        2.6881858559        0.8172341809
 C          1.8144571350        3.4782497404        0.9932314727
 C          0.6911411372        3.2642335022        0.2094743931
 C          0.6894428496        2.2687067977       -0.7545676847
 C          1.8123333772        1.4788207774       -0.9400084459
 H          1.8086064492        0.6935758123       -1.6795884800
 H         -0.1826582478        2.0838330643       -1.3622043681
 H         -0.1887280956        3.8724873856        0.3501106151
 H          1.8146575753        4.2534157568        1.7425016436
 H          3.8294629332        2.8132351836        1.4114908734
 H          3.7296588527       -1.2925103161       -1.2199086945
 H          3.5814225611       -0.0753019003        2.1786063426
 H          1.5763162008       -0.3845232676        3.6128564736
 H         -0.3959710806       -1.5753748753        2.7286483156
 H         -1.3129529596       -3.0818340571        1.1339558659
 C         -0.5012329515       -3.7278535213       -0.7342831640
 C          0.0620080630       -5.0443215203       -0.2917416781
 C         -1.3658077562       -4.9513297090       -0.7365007216
 H         -1.6405487714       -5.3856765452       -1.6861168504
 H         -2.1404945156       -5.0177915376        0.0132114432
 H          0.7697308619       -5.5460666131       -0.9338917425
 H          0.2578612440       -5.1720055460        0.7621400328
 H         -0.1928145570       -3.3437219019       -1.6988344663
