  62
        -98.93162967
 C          2.4826565806        0.8079385321       -0.0309480336
 C          2.9030938833       -0.3303638327        0.7021082434
 C          4.0308913146       -1.0995198626        0.1535312961
 C          4.5943768610       -0.7021886292       -0.9998936381
 C          5.7215448184       -1.3458445973       -1.7682520099
 C          6.9184990772       -1.8706315297       -0.9642684361
 C          7.2616850533       -1.0575930236        0.2924944820
 H          8.3246510795       -0.8097731625        0.2759734766
 H          6.7081531265       -0.1169939385        0.2923581252
 C          6.9767804336       -1.8162524273        1.5909197701
 H          7.3186462929       -2.8472052844        1.4762847517
 H          7.5615989892       -1.3659559234        2.3967385431
 C          5.5160780523       -1.8209889065        2.0402321883
 H          5.2283842908       -0.8211083350        2.3765109049
 H          5.4322964560       -2.4846158995        2.9042978609
 C          4.4970874289       -2.2649767994        0.9779763815
 H          4.8973506824       -3.0627537462        0.3571024581
 H          3.6110122157       -2.6390585622        1.4979762589
 H          6.7403103193       -2.9064145390       -0.6789597536
 H          7.7749136620       -1.8743738528       -1.6407103810
 H          5.3032119167       -2.1635986813       -2.3623642722
 H          6.0597815896       -0.5796682652       -2.4700582853
 O          4.1560779553        0.3943070054       -1.6774659305
 C          3.0985997804        1.1749042099       -1.2271593826
 O          2.8340474656        2.1326984712       -1.9753630169
 H         -0.8262184195        0.7616728863        1.9452492849
 C         -0.9988161243        0.7121208504        0.8784240322
 C          0.0102111655        1.0961700737        0.0079593200
 C         -0.2201187316        1.0081948548       -1.3616356832
 C         -1.4353104972        0.5514840696       -1.8380700503
 C         -2.4389116515        0.1665770938       -0.9656983107
 C         -2.2183416443        0.2454173940        0.4024220082
 N         -3.2218800051       -0.1654224195        1.2926377840
 S         -4.7977162291        0.3522132015        1.0458567208
 O         -4.8328858730        1.6418600170        0.3966926299
 O         -5.4266274008        0.2691022661        2.3456306029
 C         -5.4980512495       -0.8910980665       -0.0184087798
 C         -5.4011096266       -2.2128034825        0.3705455944
 C         -5.9544472907       -3.1906701144       -0.4403730763
 C         -6.5944582724       -2.8324815742       -1.6176855965
 C         -6.6858995535       -1.5008876795       -1.9926166242
 C         -6.1335718919       -0.5177146519       -1.1863411984
 H         -6.1757191892        0.5294567330       -1.4407983610
 H         -7.1839471711       -1.2245364301       -2.9080957201
 H         -7.0243050720       -3.5959278808       -2.2467462635
 H         -5.8848481181       -4.2273942228       -0.1527200212
 H         -4.8975761480       -2.4503101490        1.2928250248
 H         -2.9618158678       -0.1062590142        2.2662475052
 H         -3.3857498102       -0.1912535239       -1.3355843951
 H         -1.6027977304        0.4912446343       -2.9028393513
 H          0.5619320256        1.3055378362       -2.0440837087
 C          1.3240556176        1.5975300326        0.5509090144
 H          1.3433465679        1.3632233784        1.6274652841
 C          1.4901127359        3.1048196641        0.4176055709
 C          0.6375850362        3.9669209136       -0.4590500127
 C          0.4745657183        4.0254017662        1.0283130036
 H          0.8181703637        4.9013776625        1.5573082728
 H         -0.4145354333        3.5768706631        1.4471042281
 H          1.1173795644        4.7905847777       -0.9650610391
 H         -0.1439596949        3.4998519408       -1.0370276533
 H          2.5294720671        3.4037531014        0.5095096292
 O          2.3523290436       -0.6908303681        1.7773874563
