  62
        -98.93435183
 C         -2.3868640979       -1.1884332669        0.0928813863
 C         -3.3113205425       -0.5586590577        0.9610846724
 C         -4.1995630047        0.4551547066        0.3653658152
 C         -4.0620120939        0.7535361586       -0.9380133441
 C         -4.8223139582        1.7804992137       -1.7310685412
 C         -4.0704138532        3.1221736379       -1.7499586238
 C         -4.3790463889        4.0510829237       -0.5763497107
 H         -3.6930751824        4.8987339666       -0.6430455978
 H         -5.3931354517        4.4413534660       -0.6843785837
 C         -4.2449217359        3.4185815058        0.8113494848
 H         -3.3411887413        2.8072019689        0.8515633891
 H         -4.1203575795        4.2250020872        1.5368433115
 C         -5.4644911458        2.5745250763        1.2107789496
 H         -6.2785669286        2.7715688877        0.5136810138
 H         -5.8165467185        2.8906318444        2.1950279000
 C         -5.2123693338        1.0626386903        1.2974970749
 H         -4.8501710308        0.8117675506        2.2997856719
 H         -6.1635906704        0.5346270397        1.1701101658
 H         -4.3196658510        3.6501708611       -2.6725193127
 H         -2.9993096761        2.9054270295       -1.7770363263
 H         -5.8298126302        1.8990306335       -1.3436678158
 H         -4.8806306193        1.4009078966       -2.7532812540
 O         -3.1230124947        0.1634477309       -1.7263237285
 C         -2.2610138660       -0.8103818273       -1.2446989959
 O         -1.4555536562       -1.2346609969       -2.0921587375
 O         -3.3860035704       -0.8258339946        2.1916785333
 C         -1.4702683308       -2.2439222600        0.6836603460
 C         -0.0402394473       -1.9889167596        0.2759936180
 C          0.7570196339       -2.9227735718       -0.3710990986
 C          2.0661459826       -2.6171150799       -0.7012058574
 C          2.6069023037       -1.3819200697       -0.3981873665
 C          1.8199713133       -0.4399727584        0.2521177058
 C          0.5131901840       -0.7530666859        0.5908046806
 H         -0.0999161221       -0.0178216486        1.0995963048
 N          2.3558669878        0.8264893708        0.5480354999
 S          3.8238648869        0.8943839620        1.3602511929
 O          4.0081143888       -0.2563651846        2.2142250257
 O          3.8345127166        2.1857856251        2.0126979396
 C          5.0392681084        0.8909189119        0.0597092610
 C          4.9462107662        1.8575629243       -0.9222976418
 C          5.8898974840        1.8730239296       -1.9368659144
 C          6.9064647898        0.9294373203       -1.9502831906
 C          6.9881311981       -0.0321798225       -0.9548645751
 C          6.0467670842       -0.0538258683        0.0625268637
 H          6.0661228087       -0.7859824135        0.8539772507
 H          7.7789699044       -0.7648296096       -0.9672244403
 H          7.6387655110        0.9435243553       -2.7420290009
 H          5.8290605846        2.6188300165       -2.7130674188
 H          4.1425534774        2.5734532963       -0.8745800185
 H          1.6904406882        1.4610944227        0.9649993201
 H          3.6231782321       -1.1389643134       -0.6619058896
 H          2.6722340391       -3.3509567563       -1.2101762196
 H          0.3490050761       -3.8839162956       -0.6362571667
 H         -1.5384506359       -2.0827771034        1.7734453566
 C         -1.9243465779       -3.6745373133        0.4343756050
 C         -3.3673134039       -3.9976595820        0.1900092753
 C         -2.3677746579       -4.1524975994       -0.9147022183
 H         -2.0938818286       -5.1521418536       -1.2189823264
 H         -2.3728520838       -3.4360554421       -1.7207834192
 H         -3.7768841385       -4.8869810016        0.6451406474
 H         -4.0643635979       -3.1736952535        0.1382803599
 H         -1.3738563217       -4.3836878767        1.0452145165
