  62
        -98.93533002
 C         -2.1126822826       -0.9026703515       -0.4215313968
 C         -3.1212836565       -0.7012606144        0.5542531848
 C         -3.7290735169        0.6393187603        0.6425043415
 C         -3.2828727451        1.6030583882       -0.1839961265
 C         -3.7625317110        3.0247162204       -0.3077976257
 C         -5.1029969868        3.1353555454       -1.0523783601
 C         -6.1526856472        2.1059213567       -0.6421718887
 H         -7.0085139737        2.2199093459       -1.3126234413
 H         -5.7506110085        1.1031842615       -0.7974116783
 C         -6.6627204513        2.2320813757        0.7913421676
 H         -7.4655004332        1.5008535922        0.9152704910
 H         -7.0940669691        3.2256104631        0.9320925796
 C         -5.6288454925        1.9914075555        1.8935450080
 H         -6.1766456211        1.8694669985        2.8325680437
 H         -4.9838914245        2.8563494671        2.0239683075
 C         -4.7873491606        0.7315141118        1.7152598679
 H         -4.2668767771        0.5234435089        2.6581475167
 H         -5.4519277973       -0.1258570862        1.5590915925
 H         -5.4977056253        4.1416565939       -0.9028417060
 H         -4.9074863665        3.0039860059       -2.1193761883
 H         -3.8245299568        3.4834738263        0.6746261194
 H         -3.0015385906        3.5630161098       -0.8772827205
 O         -2.3010672658        1.3704841125       -1.0989506519
 C         -1.6886372240        0.1399742871       -1.2441205256
 O         -0.8095901409        0.1269720281       -2.1308478017
 O         -3.5159235502       -1.6175337936        1.3252934770
 C         -1.4969995946       -2.2912557379       -0.4915568600
 C         -0.1807128807       -2.3095748600        0.2484809532
 C         -0.0429164075       -3.0032352209        1.4449393572
 C          1.1528071251       -2.9769013286        2.1419691034
 C          2.2331603685       -2.2564122480        1.6644575426
 C          2.1011031701       -1.5542194466        0.4739318034
 C          0.9074643124       -1.5936375694       -0.2302105286
 H          0.8074995619       -1.0292488307       -1.1456981337
 N          3.1920556981       -0.7949836737       -0.0192583445
 S          3.5804334394        0.5539875027        0.9266889087
 O          3.9884591582        0.0946569633        2.2296550723
 O          2.4961995419        1.5146423378        0.9026399268
 C          4.9871227039        1.1876092602        0.0358928588
 C          6.2404178121        0.6798461807        0.3186354444
 C          7.3288950789        1.1448638199       -0.4019322644
 C          7.1464942637        2.1021229210       -1.3888012475
 C          5.8821152142        2.6025567479       -1.6608047721
 C          4.7891535894        2.1409815370       -0.9441700641
 H          3.7895172194        2.5082209533       -1.1165323630
 H          5.7423325435        3.3481953163       -2.4269948623
 H          7.9946818896        2.4628705244       -1.9488861483
 H          8.3138646164        0.7600623991       -0.1925765640
 H          6.3339331223       -0.0570649102        1.0988338679
 H          2.9832227158       -0.4536771021       -0.9505791914
 H          3.1609533100       -2.2072963142        2.2098692389
 H          1.2434773247       -3.5195935925        3.0708117014
 H         -0.8894280633       -3.5474359982        1.8383391105
 H         -2.1947152423       -2.9412997629        0.0532009086
 C         -1.3518443074       -2.8184653386       -1.9050413619
 C         -1.2004329511       -4.2942585922       -2.1150996215
 C         -2.4718490351       -3.6071369256       -2.5114421262
 H         -2.6838527193       -3.4746460236       -3.5617174701
 H         -3.3514408521       -3.7722086756       -1.9064004295
 H         -0.5367680706       -4.6375513294       -2.8935480149
 H         -1.2176145251       -4.9265567268       -1.2403805252
 H         -0.8018599059       -2.1559339111       -2.5602408324
