  62
        -98.93440115
 C          1.6946233892       -0.0047123143        0.9099640800
 C          2.9059647273        0.7209653265        0.8158730164
 C          4.1152519021       -0.0616058882        0.4972465857
 C          4.0202650119       -1.3859277497        0.2951667943
 C          5.1180256106       -2.3744979639       -0.0089546646
 C          6.1902836512       -1.9554249844       -1.0241315483
 C          5.6948062852       -1.0383581331       -2.1518613443
 H          4.6040076300       -1.0025574408       -2.1541159063
 H          6.0089973600       -1.4543300239       -3.1110004699
 C          6.2510731809        0.3841580817       -2.0526880012
 H          6.1769818289        0.8594895672       -3.0338186343
 H          7.3113447150        0.3288553323       -1.7961399521
 C          5.5416898690        1.2968286096       -1.0532551785
 H          4.5426283216        1.5440066266       -1.4223045751
 H          6.1020150858        2.2332078008       -0.9959659692
 C          5.3862564297        0.7280571835        0.3666332015
 H          5.2915844369        1.5706140093        1.0569062640
 H          6.2552109492        0.1411272545        0.6536709692
 H          6.5935966560       -2.8742725810       -1.4532211010
 H          7.0128445207       -1.4656768839       -0.5047698694
 H          5.6040294796       -2.6429223753        0.9336271158
 H          4.6020194145       -3.2674922524       -0.3696943265
 O          2.8303883082       -2.0451931402        0.3802188245
 C          1.6562626350       -1.3843255724        0.6855951360
 O          0.6530319166       -2.1242795506        0.7328828705
 H         -2.0549060798        0.0553344036        0.1968282262
 C         -1.5639942706        0.8483412606       -0.3463611570
 C         -0.2955158984        1.2585608474        0.0361800057
 C          0.3305998729        2.2667997405       -0.6886779939
 C         -0.3054337291        2.8443201014       -1.7720734964
 C         -1.5816631580        2.4504026611       -2.1350332064
 C         -2.2177212943        1.4475810541       -1.4135956049
 N         -3.5095618187        1.0213007581       -1.7522690891
 S         -4.6075595966        0.6499012731       -0.5439574043
 O         -5.9021533956        0.8181441823       -1.1688217279
 O         -4.3696395419        1.4295221360        0.6478167147
 C         -4.3479160219       -1.0799024664       -0.2174601820
 C         -4.1272516473       -1.5070299105        1.0765479694
 C         -3.9475440830       -2.8601339123        1.3153793288
 C         -3.9934365240       -3.7579532047        0.2604708656
 C         -4.2204366509       -3.3136028313       -1.0333664447
 C         -4.4011447929       -1.9621438344       -1.2781190279
 H         -4.5832497974       -1.5797563291       -2.2686255088
 H         -4.2547107179       -4.0164406802       -1.8502310600
 H         -3.8498862842       -4.8101235081        0.4492714572
 H         -3.7680952542       -3.2070902525        2.3204532818
 H         -4.0942073974       -0.7743079744        1.8680239661
 H         -3.9411644472        1.5294053538       -2.5104167351
 H         -2.0829514497        2.9150270586       -2.9707449805
 H          0.1916934760        3.6220916673       -2.3322352600
 H          1.3163956065        2.5916889841       -0.3935945393
 C          0.3540781931        0.6275081044        1.2446104605
 H         -0.2905287398       -0.2026799383        1.5645212541
 C          0.4203083372        1.6394911604        2.3742332590
 C         -0.8580040555        2.0700559858        3.0265728068
 C          0.1105734315        1.2028843984        3.7725967964
 H          0.6724219087        1.6387722484        4.5851301719
 H         -0.1476631832        0.1652250196        3.9275428139
 H         -1.7788884015        1.6317388727        2.6693761943
 H         -0.9586717900        3.1022829829        3.3259156786
 H          1.1928679408        2.3845703109        2.2391111525
 O          3.0079538993        1.9642434134        0.9914458659
