  62
        -98.94092550
 C         -1.6545352298       -1.1245573601        0.1521528388
 C         -2.3047443699       -0.2243756409        1.0376604195
 C         -3.1184105801        0.8309036994        0.4212107903
 C         -3.1878768601        0.9047052904       -0.9199398797
 C         -4.0243454403        1.8887140008       -1.6841534289
 C         -5.4191203203        1.3186598708       -1.9781761093
 C         -6.1110399701        0.7166978198       -0.7549467496
 H         -7.0973075401        0.3741431799       -1.0756460098
 H         -5.5556386700       -0.1658845003       -0.4291263903
 C         -6.2649376902        1.6830214590        0.4279857511
 H         -6.1444173404        2.7110322392        0.0843478418
 H         -7.2782574002        1.5910213885        0.8245977110
 C         -5.3060755901        1.4211670483        1.5910954908
 H         -5.6433068901        2.0102811676        2.4480034113
 H         -5.3579905499        0.3679085381        1.8782135101
 C         -3.8362047902        1.7801459587        1.3387989510
 H         -3.7675684703        2.8040487890        0.9661336717
 H         -3.3117779601        1.7247275381        2.2969762409
 H         -6.0380011204        2.1165581610       -2.3926840587
 H         -5.3215206802        0.5369692813       -2.7352723398
 H         -4.1111427304        2.8084381804       -1.1089283083
 H         -3.5244446604        2.1070179315       -2.6294697388
 O         -2.5302776401        0.0464379111       -1.7379533903
 C         -1.7564633899       -0.9929943392       -1.2330480011
 O         -1.2295750698       -1.6910538185       -2.1203088916
 O         -2.2136815198       -0.3086012117        2.2907504494
 C         -0.8466466796       -2.2395084205        0.7956001580
 C          0.6106243304       -1.8681985503        0.8951530282
 C          1.2769385204       -1.8945419711        2.1143453681
 C          2.6133869204       -1.5415195709        2.1954500383
 C          3.3105470703       -1.1539087400        1.0654729285
 C          2.6494419602       -1.1144189693       -0.1560200814
 C          1.3103260103       -1.4672990694       -0.2352062916
 H          0.8022058102       -1.4369141188       -1.1878431515
 N          3.3404096001       -0.7054542283       -1.3099051711
 S          4.2905372699        0.6657305117       -1.1923090402
 O          4.3046168497        1.2400684627       -2.5190926898
 O          5.5785401900        0.3117372416       -0.6491333405
 C          3.4388351998        1.7428811908       -0.0514508394
 C          2.1356091197        2.1003843608       -0.3357285691
 C          1.4571449596        2.9206530401        0.5506483315
 C          2.0904897296        3.3686771593        1.6999888018
 C          3.4006380997        3.0050300794        1.9688459915
 C          4.0830134798        2.1821834101        1.0871044709
 H          5.1003900798        1.8703846701        1.2588096806
 H          3.8900890197        3.3562151588        2.8628363117
 H          1.5560815295        4.0041879088        2.3882541423
 H          0.4364173596        3.2010012801        0.3440437218
 H          1.6668263097        1.7390565814       -1.2378987693
 H          2.7645878100       -0.6854325078       -2.1390508711
 H          4.3533823902       -0.8841587099        1.1076151687
 H          3.1184614304       -1.5683670615        3.1485941083
 H          0.7369583605       -2.1826161718        3.0041358579
 H         -1.2390172295       -2.3042254313        1.8225507780
 C         -1.0762394994       -3.5950034800        0.1396775870
 C         -0.0316197793       -4.3426449793       -0.6282661435
 C         -0.4485257392       -4.8247353904        0.7267536661
 H         -1.0391719590       -5.7251327405        0.8008238655
 H          0.2484761608       -4.6835849508        1.5391537662
 H         -0.3527486593       -4.8923668288       -1.5000901339
 H          0.9469665406       -3.9015516891       -0.7331216233
 H         -2.0944741594       -3.6977863999       -0.2228870130
