  62
        -98.93771944
 C         -2.4180673908       -1.1454904507        0.0252274613
 C         -3.3816803772       -0.6134573289        0.9208779915
 C         -4.3722775105        0.3254176013        0.3686100390
 C         -4.3218459078        0.6378906765       -0.9393892734
 C         -5.2071181904        1.5228692289       -1.7917799700
 C         -6.2076502850        2.4778219830       -1.1463227608
 C         -5.5776731618        3.6417705408       -0.3815730881
 H         -5.1139323520        4.3195067723       -1.1028053891
 H         -6.3752921754        4.1901105729        0.1242563403
 C         -4.5108333677        3.2595771879        0.6414592872
 H         -4.1383887231        4.1816186354        1.0959856387
 H         -3.6664613392        2.7886636696        0.1336905139
 C         -4.9839243398        2.3450203407        1.7694382027
 H         -4.1738209923        2.2784508156        2.5006411137
 H         -5.8475832617        2.7907849722        2.2666301217
 C         -5.3467118378        0.9103223564        1.3500930126
 H         -5.3010302448        0.2768718336        2.2406801094
 H         -6.3613220672        0.8559755984        0.9628621106
 H         -6.8023525874        2.9019148776       -1.9599925580
 H         -6.8942555597        1.9283982756       -0.5091029317
 H         -5.7546026572        0.8428548587       -2.4538481465
 H         -4.5285138047        2.0944415564       -2.4330951206
 O         -3.3816951627        0.0959766736       -1.7657744002
 C         -2.4134326968       -0.7893000484       -1.3216040673
 O         -1.6383939909       -1.1619733981       -2.2268184921
 O         -3.4217969147       -0.9238861308        2.1411038639
 C         -1.4097527462       -2.1198516939        0.6104184262
 C         -0.0769983669       -1.4584648203        0.8718924238
 C          0.4192148723       -1.3450593329        2.1653586668
 C          1.6496761402       -0.7562071571        2.3989656397
 C          2.4070042429       -0.2646473915        1.3509585045
 C          1.9186713641       -0.3697388535        0.0550038295
 C          0.6887682006       -0.9691832296       -0.1768788100
 H          0.3115070916       -1.0429221514       -1.1862932876
 N          2.6642090449        0.1521672031       -1.0164176226
 S          4.2806411812       -0.2782833780       -1.1472098403
 O          4.6084641536       -0.1119076990       -2.5463415045
 O          4.5305147915       -1.5835083567       -0.5802741018
 C          5.1316004302        0.9689052546       -0.2027010179
 C          4.8868067775        2.2943379568       -0.5044564096
 C          5.5512247671        3.2771286638        0.2116212904
 C          6.4467773063        2.9201809166        1.2089460616
 C          6.6839555354        1.5850779739        1.4976519960
 C          6.0215220011        0.5969134547        0.7858332586
 H          6.1691464991       -0.4536125592        0.9791949924
 H          7.3803615278        1.3097506686        2.2733044500
 H          6.9625647642        3.6875611795        1.7642829782
 H          5.3686934020        4.3164594477       -0.0095852852
 H          4.1853987548        2.5291688461       -1.2878018376
 H          2.1960367001        0.0649193647       -1.9072208958
 H          3.3654367318        0.1961781480        1.5263417973
 H          2.0224673506       -0.6761173881        3.4086397117
 H         -0.1722637805       -1.7139760172        2.9906175503
 H         -1.8306885851       -2.4140452701        1.5812411046
 C         -1.2299076510       -3.3695429375       -0.2300745578
 C         -0.6857177391       -4.6069202999        0.4157592131
 C         -2.1253114117       -4.5475013595        0.0029027587
 H         -2.4445020821       -5.1276168067       -0.8499262351
 H         -2.8743128702       -4.4602912592        0.7764393858
 H         -0.0108665025       -5.2291787719       -0.1518772361
 H         -0.4586104084       -4.5615073907        1.4700815143
 H         -0.9365198094       -3.1647099501       -1.2516592266
