  62
        -98.93912281
 C          0.9235515713        1.2601924998       -0.3323013593
 C          1.8832830107        1.2410630890        0.7093200511
 C          2.6854302000        0.0163161385        0.8581698612
 C          2.4582747598       -1.0185248011        0.0320885707
 C          3.1040477491       -2.3823930815        0.0276626907
 C          4.6189062889       -2.4530706924        0.2596769914
 C          5.4163381599       -1.2735878226       -0.3156686778
 H          6.2350515300       -1.6616863129       -0.9242894675
 H          4.7789803005       -0.6746200921       -0.9681755480
 C          6.0206523998       -0.3772294133        0.7675285127
 H          6.8450103903        0.1930317664        0.3326311133
 H          6.4397210691       -1.0098632937        1.5530607727
 C          5.0580437000        0.6289973871        1.3972250725
 H          4.8050477408        1.4054014974        0.6701766726
 H          5.5780649199        1.1211482965        2.2226924229
 C          3.7390812995        0.0429618076        1.9279085517
 H          3.8915432587       -0.9401156426        2.3676234815
 H          3.3603455894        0.7130141376        2.7049098317
 H          4.8210334784       -2.5327024428        1.3268809115
 H          4.9641136487       -3.3832989524       -0.1949648287
 H          2.5977028184       -2.9978728914        0.7779118502
 H          2.8661703093       -2.8050004110       -0.9514485896
 O          1.5216145404       -0.9640936503       -0.9537274297
 C          0.7309516111        0.1569948502       -1.1641798398
 O         -0.0765575885        0.0241584909       -2.1028837502
 O          2.0628619409        2.2154527587        1.4908488015
 C          0.0807351720        2.5116354403       -0.4709399994
 C         -1.2733097984        2.3798120809        0.1913368799
 C         -1.9390946280        3.5109232411        0.6543993199
 C         -3.1773741884        3.4016409916        1.2594137692
 C         -3.7703950891        2.1633967219        1.4341742186
 C         -3.1143064495        1.0280023217        0.9753746286
 C         -1.8845742991        1.1461570312        0.3441162192
 H         -1.3965083795        0.2537591810       -0.0113219908
 N         -3.6799449403       -0.2455848281        1.1180629079
 S         -2.7061876711       -1.5874973087        1.3316968580
 O         -3.5926647520       -2.5749803384        1.9155447073
 O         -1.5247020314       -1.2780388595        2.1058379787
 C         -2.2628667806       -2.1284382184       -0.3031413019
 C         -1.0594295009       -2.7823807390       -0.4693402615
 C         -0.7211070005       -3.2576574189       -1.7250759415
 C         -1.5896456299       -3.0714803981       -2.7877864319
 C         -2.7961219396       -2.4151262275       -2.6038128523
 C         -3.1425492300       -1.9409311476       -1.3494565623
 H         -4.0682044798       -1.4180680472       -1.1742002526
 H         -3.4646917991       -2.2645560568       -3.4362757426
 H         -1.3186861596       -3.4323279379       -3.7675247519
 H          0.2232508693       -3.7574476393       -1.8700596712
 H         -0.4029181614       -2.8857723497        0.3812132088
 H         -4.5263847906       -0.2921411778        1.6658682975
 H         -4.7280523494        2.0738828123        1.9235082381
 H         -3.6815922481        4.2874888718        1.6142277292
 H         -1.4748069974        4.4791813109        0.5478724604
 H          0.6334303622        3.2952762399        0.0672054111
 C         -0.0945938270        2.9513888309       -1.9138400194
 C         -0.1763246361        4.4078468710       -2.2538645890
 C          1.0447463337        3.6203849904       -2.6207017886
 H          1.2193967041        3.3786101607       -3.6580189686
 H          1.9493319135        3.7905310798       -2.0545580081
 H         -0.8473857655        4.7134252916       -3.0416049592
 H         -0.0860209761        5.1225256807       -1.4502609887
 H         -0.6977278271        2.2623352014       -2.4914199799
