  62
        -98.94398221
 C          1.7572010067        1.4497797190        0.4939168546
 C          2.5722469322        0.9293112053       -0.5415355022
 C          3.4214195117       -0.2153269846       -0.1722853686
 C          3.3415419643       -0.7311195531        1.0670748928
 C          4.1217654293       -1.9156481608        1.5582466304
 C          3.3631828171       -3.2293480377        1.3249899841
 C          2.8182238856       -3.3823676459       -0.0946951149
 H          2.3250265548       -4.3553504936       -0.1476099397
 H          2.0580809266       -2.6180438405       -0.2686639713
 C          3.8806974190       -3.2863522144       -1.1979557649
 H          3.7127933976       -4.0889269867       -1.9190934388
 H          4.8738864212       -3.4367293464       -0.7732027925
 C          3.8570660795       -1.9713201326       -1.9790339757
 H          2.8411774815       -1.7673574583       -2.3260851448
 H          4.4879675000       -2.0899221817       -2.8639073362
 C          4.3633827085       -0.7377427842       -1.2210121591
 H          5.3419148224       -0.9501504890       -0.7850954714
 H          4.4799065234        0.0716205195       -1.9475133183
 H          2.5243052525       -3.2738885572        2.0237739098
 H          4.0344552712       -4.0595776485        1.5521166666
 H          4.2953075237       -1.7914939208        2.6286422072
 H          5.0823513576       -1.9448101918        1.0472702461
 O          2.4955656051       -0.2479253805        2.0133732192
 C          1.6920301614        0.8471269611        1.7532828384
 O          0.9688297765        1.1887998687        2.7120380979
 O          2.6146174117        1.3858996530       -1.7125283283
 C          0.8478270816        2.6550585389        0.2959439953
 C         -0.4266797863        2.1759382698       -0.3552202561
 C         -0.5459547580        1.9925230764       -1.7279590942
 C         -1.7176269282        1.4889896121       -2.2656498374
 C         -2.7864046082        1.1535857406       -1.4528120853
 C         -2.6694796471        1.3202495191       -0.0789707564
 C         -1.4978101979        1.8319541419        0.4587738085
 H         -1.4005802413        1.9427728802        1.5307773008
 N         -3.7379662123        0.9545132418        0.7607263124
 S         -4.4232234280       -0.5490954324        0.4968628248
 O         -5.3905629267       -0.4559999209       -0.5680204958
 O         -4.9412409744       -0.9664277378        1.7806503716
 C         -3.0748418525       -1.6032736213       -0.0101258033
 C         -1.9853708088       -1.7242885882        0.8297026087
 C         -0.9244662958       -2.5243568600        0.4393824185
 C         -0.9696983449       -3.1875582529       -0.7773847650
 C         -2.0718359366       -3.0583050113       -1.6077294607
 C         -3.1350794468       -2.2570837464       -1.2237570516
 H         -4.0088458121       -2.1240132455       -1.8406487234
 H         -2.1032281500       -3.5757768245       -2.5528885529
 H         -0.1395779755       -3.8071287203       -1.0779151049
 H         -0.0655569099       -2.6186780762        1.0855633460
 H         -1.9702008535       -1.1990184507        1.7719632281
 H         -3.5446781256        1.0938696740        1.7420900512
 H         -3.7054278608        0.7620652779       -1.8581945489
 H         -1.7996931228        1.3522859510       -3.3330704813
 H          0.2926780224        2.2199752076       -2.3660750678
 H          0.5923712014        3.0015495865        1.3065805725
 C          1.5066828314        3.7986548729       -0.4450872510
 C          0.8788687004        5.1571677823       -0.3763124470
 C          2.1686054854        4.8901789420        0.3386088559
 H          3.0760801204        5.3261035054       -0.0514255323
 H          2.1491755601        4.8181329345        1.4166752731
 H          0.8981436955        5.7792568000       -1.2578093205
 H         -0.0168838870        5.2644003050        0.2171727952
 H          1.9770354615        3.5062439288       -1.3735762878
