  62
        -98.93826681
 C          0.9422972863        1.7358571124        0.1643484168
 C          1.5272328140        0.7956435423        1.0476124069
 C          2.4981096076       -0.1559627721        0.4798527619
 C          2.7699440877       -0.1036692620       -0.8373404234
 C          3.6320616207       -0.9866713201       -1.7154281356
 C          4.6052727534       -1.9874521468       -1.0987849333
 C          5.7977057520       -1.3537122431       -0.3823971324
 H          6.3605173205       -2.1467383931        0.1144696611
 H          6.4510228381       -0.9014193529       -1.1327500653
 C          5.4503505519       -0.2730904845        0.6380946592
 H          6.3871958417        0.1102711862        1.0512768078
 H          4.9557662683        0.5601468682        0.1345966952
 C          4.5818479999       -0.7344289709        1.8061429888
 H          4.5412343661        0.0851626254        2.5284759989
 H          5.0512307375       -1.5893577014        2.2964690811
 C          3.1329801137       -1.1099894807        1.4509667169
 H          3.0656171332       -2.1323236808        1.0854797413
 H          2.5396525056       -1.0486981077        2.3677470345
 H          4.9960056399       -2.5903130442       -1.9230565404
 H          4.0749646803       -2.6663237969       -0.4374594307
 H          4.1828371365       -0.3089604836       -2.3760394376
 H          2.9267258394       -1.5307962330       -2.3547947237
 O          2.1981085557        0.8309532426       -1.6484347342
 C          1.2682816064        1.7572727323       -1.1921252412
 O          0.8526222140        2.5204520583       -2.0820205919
 O          1.2353532076        0.7424273366        2.2731486750
 C         -0.1170305505        2.6452586280        0.7612884252
 C         -1.4448802891        1.9278967402        0.7939579161
 C         -2.2868563480        2.0208731060        1.8962618899
 C         -3.4936076974        1.3443264963        1.9198015995
 C         -3.8674829661        0.5362371372        0.8609796506
 C         -3.0271755658        0.4265522089       -0.2404313790
 C         -1.8376834100        1.1384772250       -0.2775900914
 H         -1.2041023391        1.0512084570       -1.1474573238
 N         -3.3418736003       -0.4241872407       -1.3202676592
 S         -2.2246096256       -1.6282109024       -1.6642723857
 O         -1.0298722264       -1.0614957938       -2.2333292089
 O         -2.9453690259       -2.5713074323       -2.4920354116
 C         -1.8810932126       -2.3477706584       -0.0701019254
 C         -0.8520872486       -1.8297736146        0.6890956056
 C         -0.6604992591       -2.3069226305        1.9757079712
 C         -1.4929518972       -3.2963425595        2.4752385618
 C         -2.5148289493       -3.8174765727        1.6951083879
 C         -2.7198733356       -3.3335324125        0.4133411150
 H         -3.5022768262       -3.7083422792       -0.2267057365
 H         -3.1560458282       -4.5913340140        2.0852712292
 H         -1.3417623700       -3.6622928693        3.4784149831
 H          0.1288077174       -1.8824007028        2.5758047773
 H         -0.2170777497       -1.0630908513        0.2726770129
 H         -4.2652420555       -0.8317552878       -1.2596862967
 H         -4.7971131841       -0.0115499286        0.8865511810
 H         -4.1402981097        1.4296903578        2.7793152015
 H         -1.9821156780        2.6150416084        2.7448633962
 H          0.1917483911        2.8039468825        1.8073847707
 C         -0.2060191433        4.0115175239        0.0998641373
 C         -1.2975293681        4.3859664029       -0.8524814832
 C         -1.2625601216        4.9916710541        0.5167270530
 H         -0.9886826193        6.0311432181        0.6143267358
 H         -2.0045106461        4.6592544417        1.2262691592
 H         -1.0316537302        4.9921950674       -1.7047073995
 H         -2.0543727235        3.6479219746       -1.0701527858
 H          0.7764926910        4.4177488751       -0.1170625247
