  62
        -98.94502759
 C         -1.5292286522        0.8613753724        0.4921049194
 C         -2.8467614258        1.3754051559        0.4658838015
 C         -3.9202652623        0.3809020759        0.5766351716
 C         -3.6122134910       -0.9214706914        0.7174604080
 C         -4.5945152030       -2.0501253120        0.8778680008
 C         -5.1497726230       -2.5876494728       -0.4480270059
 C         -6.1473255648       -1.6688368706       -1.1542833812
 H         -6.6149961353       -2.2534389875       -1.9490868154
 H         -6.9340586815       -1.3825181913       -0.4555440914
 C         -5.5208604564       -0.4103735316       -1.7710037464
 H         -4.4399478697       -0.5454280563       -1.8543268102
 H         -5.9045881279       -0.2714064660       -2.7843032153
 C         -5.8005942431        0.8802576559       -1.0006427022
 H         -6.8712326908        1.0956141206       -1.0228114717
 H         -5.2827554961        1.6999568670       -1.5055296536
 C         -5.3369191334        0.8571168706        0.4619971872
 H         -5.3777516358        1.8775980925        0.8508560593
 H         -6.0004506728        0.2297804450        1.0568754751
 H         -5.6506975818       -3.5341934522       -0.2322926850
 H         -4.3124672986       -2.7990866924       -1.1169649896
 H         -5.4187572522       -1.7312329331        1.5164109351
 H         -4.0585684559       -2.8587846147        1.3791804784
 O         -2.3307026257       -1.3735062139        0.7506477813
 C         -1.2581992558       -0.5021282491        0.6132024755
 O         -0.1437536504       -1.0536676696        0.6205858144
 O         -3.1128476991        2.6026785203        0.3540488650
 C         -0.3569870232        1.8184566851        0.3780730295
 C          0.5072555166        1.4321095983       -0.7956663177
 C         -0.0884905463        1.2739664106       -2.0451449540
 C          0.6601237603        0.8989086373       -3.1428832642
 C          2.0186180729        0.6634622015       -3.0181671744
 C          2.6248023542        0.8304818260       -1.7796833792
 C          1.8717513194        1.2230619533       -0.6806928401
 H          2.3724035339        1.3626800514        0.2616211958
 N          4.0017462756        0.6229248080       -1.6278593217
 S          4.6414978338        0.0602381456       -0.1932318359
 O          4.6696954387        1.1177658117        0.7864571800
 O          5.9338793942       -0.4711168182       -0.5738663464
 C          3.5897691925       -1.2688746275        0.3589658582
 C          3.0775217956       -1.2448488868        1.6387002259
 C          2.2907514440       -2.3006730093        2.0666023842
 C          2.0272302262       -3.3552438410        1.2089308454
 C          2.5490137162       -3.3652345931       -0.0745550517
 C          3.3408301826       -2.3148575549       -0.5060904213
 H          3.7662858414       -2.2996135634       -1.4966785588
 H          2.3352407418       -4.1857168849       -0.7410251755
 H          1.4034665363       -4.1700865456        1.5410762735
 H          1.8759059329       -2.2917317567        3.0620658327
 H          3.2991779917       -0.4001323798        2.2722287717
 H          4.4712174023        0.2338511607       -2.4316046786
 H          2.6043283415        0.3594994537       -3.8721282873
 H          0.1828704246        0.7793790084       -4.1039689024
 H         -1.1520762496        1.4461078579       -2.1405887235
 H         -0.7985012932        2.8056069213        0.1757831459
 C          0.3983220344        1.8805807121        1.6886698019
 C          1.1917119598        3.1007936604        2.0454754330
 C         -0.0834819950        2.7965901007        2.7716438518
 H         -0.0281638408        2.4593368835        3.7958110606
 H         -0.9510415037        3.4039658312        2.5585251705
 H          2.1301912758        2.9733451642        2.5645030383
 H          1.1915211698        3.9191556575        1.3412490429
 H          0.7871509056        0.9132280649        1.9885333039
