  62
        -98.94219858
 C          1.2721213397        0.8756468750        0.4378735581
 C          1.8381966414        0.5854837935       -0.8274579136
 C          2.7071215932       -0.6009555319       -0.8802585414
 C          2.8912815899       -1.3367885474        0.2311971602
 C          3.7821311192       -2.5408895196        0.3259428944
 C          5.2026158768       -2.1477753274        0.7549643852
 C          5.7933410285       -0.9915717062       -0.0518469173
 H          5.2215033543       -0.0838153006        0.1539052639
 H          6.8075778709       -0.8226529962        0.3162811085
 C          5.8332676078       -1.2308763243       -1.5676574041
 H          5.7297372582       -2.2960911703       -1.7780402272
 H          6.8093822863       -0.9199982349       -1.9459545035
 C          4.7807605327       -0.4533864918       -2.3603683150
 H          4.8202170634        0.6032086647       -2.0836940595
 H          5.0343739309       -0.5229035941       -3.4216439478
 C          3.3340050722       -0.9383951864       -2.2037889812
 H          2.7293320870       -0.4282375108       -2.9599282620
 H          3.2842192319       -2.0129533908       -2.3934026467
 H          5.8461444348       -3.0245733950        0.6625779804
 H          5.1780270122       -1.8535366535        1.8066842281
 H          3.3636524425       -3.2211314783        1.0696434546
 H          3.8091833554       -3.0448924471       -0.6382925020
 O          2.3149056563       -1.0370465739        1.4225934701
 C          1.5046044117        0.0795757341        1.5599102027
 O          1.0543489077        0.2503199025        2.7088343463
 H         -0.7085719015       -0.1470023390       -0.5452720122
 C         -1.3205416859        0.7314169374       -0.7082684400
 C         -0.9065070984        1.9557095026       -0.2057493023
 C         -1.7224097303        3.0617490875       -0.4249219044
 C         -2.9139254899        2.9393206507       -1.1174414897
 C         -3.3186235891        1.7140956794       -1.6189506519
 C         -2.5040290680        0.6105720543       -1.4217178543
 N         -2.9230050630       -0.6556736989       -1.9093560848
 S         -4.0005725114       -1.4206136084       -0.8761683886
 O         -4.1510430152       -2.7681460320       -1.3762146283
 O         -5.1977615991       -0.6241732643       -0.8015543282
 C         -3.1624565619       -1.4294017652        0.6976114356
 C         -2.2897370655       -2.4612736428        0.9800662345
 C         -1.5434558289       -2.4079894475        2.1461885676
 C         -1.6714743606       -1.3226767620        2.9994313741
 C         -2.5506600962       -0.2939539440        2.6993055859
 C         -3.3018562735       -0.3417745164        1.5362308108
 H         -3.9911843977        0.4415962143        1.2650712955
 H         -2.6385273356        0.5515280071        3.3621988306
 H         -1.0680540076       -1.2674631881        3.8911716063
 H         -0.8531368361       -3.2027751955        2.3811020707
 H         -2.2161188109       -3.2868170413        0.2893174014
 H         -2.1465019242       -1.2808125826       -2.0786181888
 H         -4.2499908686        1.5931077790       -2.1471866790
 H         -3.5360271858        3.8080047069       -1.2692163287
 H         -1.4217407144        4.0241577722       -0.0429526608
 C          0.3567726039        2.0684497614        0.6165009536
 H          0.0599515266        2.0622921496        1.6763401247
 C          1.1044358543        3.3590821741        0.3307268769
 C          0.8776842383        4.5794660900        1.1700294000
 C          2.1576519904        3.8112809608        1.2961434745
 H          3.0660850488        4.2444345860        0.9053047957
 H          2.3068514175        3.2094982085        2.1813237081
 H          0.1711438598        4.5086494989        1.9834419735
 H          0.9072734660        5.5464621389        0.6907100676
 H          1.3058060610        3.4956724848       -0.7253636474
 O          1.6226672875        1.2681069601       -1.8629822332
