  62
        -98.94939930
 C         -0.4075548263       -1.8447056282       -0.1222745661
 C         -1.5750407346       -1.9661074356        0.6658954798
 C         -2.7416423174       -1.2073621277        0.2024909696
 C         -2.6478275133       -0.4506384635       -0.9064136182
 C         -3.7747318006        0.3132446064       -1.5504481781
 C         -4.0554708320        1.6939548856       -0.9432414120
 C         -4.6907032836        1.6816765163        0.4470702204
 H         -5.0171495418        2.7018863761        0.6593126735
 H         -5.5804010392        1.0510379396        0.4357352809
 C         -3.7503595028        1.2231537084        1.5708179097
 H         -2.7104441590        1.2747145543        1.2368853052
 H         -3.8347417051        1.9055024199        2.4202846279
 C         -4.0323046161       -0.1856002726        2.0934286333
 H         -5.0113181676       -0.2068534699        2.5783258469
 H         -3.2775594995       -0.4252495650        2.8473329818
 C         -3.9970432449       -1.2787536940        1.0179043242
 H         -4.0122701524       -2.2505273540        1.5180845445
 H         -4.8749561710       -1.2018677688        0.3761527851
 H         -3.1234508952        2.2605921424       -0.9047689865
 H         -4.7339347077        2.2153475969       -1.6228226430
 H         -3.4954042990        0.4484062551       -2.5975508112
 H         -4.6839150213       -0.2883035959       -1.5109083377
 O         -1.4963565447       -0.3354526807       -1.6195506766
 C         -0.3461612567       -1.0138543904       -1.2411336349
 O          0.6389348551       -0.8058797194       -1.9727382338
 H          0.8370995207       -0.1456492984        1.2664410819
 C          1.8328757174       -0.4749783175        1.0081586549
 C          2.0227775266       -1.7382490994        0.4647096061
 C          3.3186059010       -2.1401273758        0.1608814424
 C          4.3884391940       -1.2925847978        0.3879848612
 C          4.1913930295       -0.0262028807        0.9069737281
 C          2.8995487174        0.3840032657        1.2161025690
 N          2.6559436268        1.6632701542        1.7423818454
 S          1.2963073492        2.5093751988        1.2839826266
 O          1.5997059895        3.8820352707        1.6379728315
 O          0.1198468808        1.9580012493        1.9106339895
 C          1.1522123576        2.3925637009       -0.4898468834
 C         -0.1171748249        2.4629725603       -1.0229838844
 C         -0.2776369448        2.4429733979       -2.3976281209
 C          0.8361208489        2.3486214144       -3.2152339846
 C          2.1062043333        2.2818551998       -2.6667773735
 C          2.2717047317        2.3110166856       -1.2918269525
 H          3.2534382979        2.2565429547       -0.8507213809
 H          2.9702814974        2.1989344402       -3.3061711947
 H          0.7115422923        2.3180239860       -4.2861453939
 H         -1.2676726196        2.4853361469       -2.8232506967
 H         -0.9533521659        2.5158467622       -0.3423282894
 H          3.4641515894        2.2650819788        1.8048463623
 H          5.0246899351        0.6390296873        1.0752870983
 H          5.3889481491       -1.6188025422        0.1485863805
 H          3.4901170084       -3.1193952332       -0.2548408116
 C          0.8269736508       -2.6351853108        0.2627636148
 H          0.5853273431       -3.1031061308        1.2299383966
 C          1.0748972212       -3.7305687240       -0.7568855023
 C          1.6309736316       -5.0573059729       -0.3357716856
 C          0.1933999467       -4.9423098056       -0.7415935725
 H         -0.1161237441       -5.3683189534       -1.6840984740
 H         -0.5627617180       -4.9919951498        0.0285139301
 H          2.3095737601       -5.5673911852       -1.0029031754
 H          1.8483510423       -5.2003436413        0.7120437571
 H          1.3647999293       -3.3352935769       -1.7241349799
 O         -1.6452221807       -2.6912851630        1.6963734993
