  62
        -98.94946092
 C         -2.0442340303       -0.4306025978       -0.3169676665
 C         -1.3587211307       -1.3373832685       -1.1582302814
 C         -0.9516531382       -2.6044471427       -0.5404405888
 C         -1.1947148734       -2.8154873848        0.7660871808
 C         -0.8427454029       -4.0550034114        1.5433839083
 C          0.6098758683       -4.0813421505        2.0383945102
 C          1.6552284382       -4.3805155438        0.9633162458
 H          2.5900779603       -4.6057977098        1.4805479522
 H          1.3626891137       -5.2745245412        0.4106453637
 C          1.9023262761       -3.2227819398       -0.0136334890
 H          1.5322304414       -2.2940069320        0.4286181278
 H          2.9782329400       -3.0936167307       -0.1585269472
 C          1.2803699185       -3.4184497418       -1.3963159185
 H          1.7384862118       -4.2840781456       -1.8806085318
 H          1.5078438564       -2.5385539000       -2.0016397187
 C         -0.2411910143       -3.6153384885       -1.3919087397
 H         -0.6033583819       -3.4939544120       -2.4161933148
 H         -0.4852709909       -4.6225197767       -1.0535973594
 H          0.8371352089       -3.1189648018        2.5047038791
 H          0.6793966398       -4.8522624216        2.8097478374
 H         -1.5041292016       -4.0732369373        2.4123876884
 H         -1.0394011834       -4.9404783894        0.9376124140
 O         -1.8310108754       -1.9065370420        1.5500164467
 C         -2.2603033993       -0.6931923976        1.0362489224
 O         -2.8261741948        0.0437170969        1.8674340436
 O         -1.1006830311       -1.1015214780       -2.3704077362
 C         -2.4943063850        0.9104861102       -0.8728136355
 C         -1.8558123537        2.0134726593       -0.0645963996
 C         -2.5426568502        3.1028638359        0.4523196387
 C         -1.8855859416        4.0195283099        1.2562551644
 C         -0.5497643717        3.8610067772        1.5746654594
 C          0.1523358478        2.7833856426        1.0428304671
 C         -0.4970451232        1.9000389912        0.1997488456
 H          0.0441063139        1.0632062343       -0.2092231269
 N          1.5078287577        2.5914108842        1.3349126610
 S          2.2676936165        1.1043819042        1.2363677020
 O          1.3731008351       -0.0015326927        1.4816859681
 O          3.3907527288        1.2278939342        2.1423530661
 C          2.8880724888        1.0877410857       -0.4334312494
 C          3.9607030358        1.9118014808       -0.7175035469
 C          4.4584936516        1.9483730172       -2.0092426291
 C          3.8764565722        1.1659279385       -2.9957340773
 C          2.8031542020        0.3423209947       -2.6958151064
 C          2.3035787940        0.3003556107       -1.4032988422
 H          1.4689038310       -0.3339710637       -1.1472538194
 H          2.3413375444       -0.2658173994       -3.4578388879
 H          4.2605041610        1.1953782857       -4.0031533230
 H          5.2953891832        2.5859884621       -2.2442125673
 H          4.3886449042        2.4944830893        0.0811406978
 H          1.8803178937        3.1682165638        2.0733705724
 H         -0.0531615555        4.5564182068        2.2339879940
 H         -2.4304054174        4.8585470829        1.6622586555
 H         -3.5934751083        3.2247474307        0.2466437848
 H         -2.1036601037        0.9527017968       -1.9004498224
 C         -4.0054081798        0.9889200104       -0.9185256470
 C         -4.6875971885        1.8460678172       -1.9415498520
 C         -4.7303909471        0.3535136413       -2.0655968942
 H         -5.6610522908       -0.1567385146       -1.8677114804
 H         -4.1297049751       -0.1161676562       -2.8306683514
 H         -5.5937004601        2.3613040235       -1.6606414696
 H         -4.0631413093        2.3935971404       -2.6309419740
 H         -4.4537810421        0.9059332530        0.0654692719
