  62
        -98.94367622
 C         -1.7829638278       -0.3804743488       -0.3050405349
 C         -2.9652506429       -0.7642354062       -0.9809260427
 C         -4.2097498834       -0.6591816279       -0.2077616566
 C         -4.1562929105       -0.2374435355        1.0691984048
 C         -5.3512707324       -0.0361674144        1.9546724563
 C         -5.8836734871        1.4000345237        1.8522539204
 C         -6.0787211249        1.8854038817        0.4158692140
 H         -6.4854994464        2.8976663094        0.4669180557
 H         -5.1040675625        1.9547998342       -0.0723781431
 C         -7.0069007702        1.0040210428       -0.4314756883
 H         -7.6111094594        0.3697140681        0.2181562369
 H         -7.6935199190        1.6483595183       -0.9846353373
 C         -6.2865915389        0.1326339695       -1.4620970150
 H         -7.0362304893       -0.2781387796       -2.1437740248
 H         -5.6092362691        0.7515117802       -2.0559556387
 C         -5.4880952402       -1.0482714473       -0.8957453584
 H         -5.1940042349       -1.6836982469       -1.7364430044
 H         -6.1226813541       -1.6350566690       -0.2283149360
 H         -6.8325282551        1.4552384848        2.3889790397
 H         -5.1741639692        2.0679606271        2.3459063605
 H         -6.1288768374       -0.7437154658        1.6734924238
 H         -5.0514402534       -0.2304144229        2.9857920385
 O         -2.9985132670        0.1012256686        1.6913441984
 C         -1.7836863188        0.0451044399        1.0235048964
 O         -0.8035431963        0.3905454509        1.7086045357
 O         -2.9778496854       -1.1811991561       -2.1710189051
 C         -0.4581520214       -0.4534148771       -1.0415856642
 C          0.4865434677       -1.3873162688       -0.3267797673
 C          0.0271802028       -2.6434322325        0.0627314319
 C          0.8571088260       -3.5239701958        0.7275088315
 C          2.1675267160       -3.1773119597        1.0078615037
 C          2.6400093113       -1.9320756486        0.6142027614
 C          1.8005405467       -1.0468650450       -0.0496537690
 H          2.1866270635       -0.0877812375       -0.3496732521
 N          3.9538180517       -1.5421959689        0.9045907573
 S          4.8224181420       -0.5885098327       -0.1550179158
 O          4.5315029196       -0.9152956226       -1.5315493635
 O          6.2006899306       -0.7577285876        0.2546203597
 C          4.3161376832        1.0813614323        0.1993165431
 C          4.2605090594        1.9909603031       -0.8383148691
 C          3.9007407997        3.3011310386       -0.5643961528
 C          3.6052266659        3.6770869693        0.7366950057
 C          3.6699856155        2.7525248391        1.7679443028
 C          4.0325283532        1.4419564150        1.5013910176
 H          4.0844211204        0.6987541572        2.2793436822
 H          3.4347767896        3.0470833300        2.7780793762
 H          3.3208418801        4.6959084452        0.9479975779
 H          3.8498366788        4.0219909767       -1.3651053344
 H          4.4878340050        1.6518447030       -1.8367079018
 H          4.5275151095       -2.2432013497        1.3492408922
 H          2.8167776907       -3.8634344880        1.5301531909
 H          0.4839553122       -4.4917116841        1.0277215896
 H         -0.9954917931       -2.9173628020       -0.1587906882
 H         -0.6920102730       -0.8931307775       -2.0230808775
 C          0.1041173107        0.9366745213       -1.2526552949
 C          1.0004305744        1.2213965037       -2.4193848752
 C         -0.3996329916        1.7548746839       -2.4022859435
 H         -0.5460837631        2.8144032698       -2.2564067283
 H         -1.1308331932        1.2978188207       -3.0531141365
 H          1.8151617662        1.9159075183       -2.2818555799
 H          1.2298326395        0.4034115352       -3.0858134357
 H          0.3013388564        1.4518478626       -0.3188309580
