  62
        -98.94362790
 C          2.6369686307        0.1338712440       -0.1947262161
 C          2.1594235910        0.9127910889        0.8886629163
 C          1.7438961781        2.2863590237        0.5583436834
 C          1.8081372100        2.7153691710       -0.7137542524
 C          1.3804927174        4.0732933541       -1.1898382328
 C         -0.0864731493        4.0792039327       -1.6387151501
 C         -1.0513827996        3.4602861069       -0.6264308295
 H         -0.8651032617        2.3854416888       -0.5564998867
 H         -2.0604675875        3.5775078591       -1.0293779570
 C         -0.9884192890        4.0805984915        0.7760364822
 H         -2.0087566945        4.2265016401        1.1371249627
 H         -0.5159263955        5.0631408344        0.7265351112
 C         -0.2704604087        3.2220218722        1.8193966750
 H         -0.6698699587        2.2045740004        1.7931917229
 H         -0.4915913401        3.6339661222        2.8083952481
 C          1.2564563873        3.1485768504        1.6886871788
 H          1.6442154982        2.6897387977        2.6031375599
 H          1.6688819351        4.1572533793        1.6076424481
 H         -0.1658261366        3.5147967232       -2.5706878879
 H         -0.3797094351        5.1121781215       -1.8376418640
 H          1.5283774661        4.7941733061       -0.3878431717
 H          2.0103950364        4.3507926395       -2.0371477604
 O          2.2582806858        1.9370648453       -1.7312887704
 C          2.6600101185        0.6346340116       -1.4991578295
 O          3.0372240088        0.0278188374       -2.5238934465
 H          0.4961885754       -0.9979613584        0.7706965093
 C          0.6301974063       -1.8989010764        0.1921446654
 C          1.8821159443       -2.2356134704       -0.2973874435
 C          2.0187552198       -3.4173009924       -1.0174237119
 C          0.9229715696       -4.2269218706       -1.2561780527
 C         -0.3345264565       -3.8585947336       -0.8122851748
 C         -0.4795283482       -2.6823751237       -0.0865656016
 N         -1.7364841413       -2.2512196365        0.3697514054
 S         -2.0277182369       -0.5841208708        0.2728264929
 O         -1.4172246211       -0.0473766003       -0.9218718198
 O         -1.6555582837        0.0227846350        1.5245868911
 C         -3.8048217347       -0.5709843208        0.1217829170
 C         -4.5656704821       -0.7667854143        1.2592619264
 C         -5.9463432863       -0.7948361579        1.1446719484
 C         -6.5399402945       -0.6271371863       -0.0978389930
 C         -5.7634940507       -0.4281177634       -1.2294414710
 C         -4.3815431349       -0.4013686591       -1.1221935126
 H         -3.7363238677       -0.2431817886       -1.9716411129
 H         -6.2273293289       -0.2938158878       -2.1933242997
 H         -7.6147262023       -0.6487486011       -0.1843627266
 H         -6.5530718550       -0.9462167281        2.0227336613
 H         -4.0589030386       -0.8814807916        2.2032754891
 H         -2.5012218750       -2.7867684187       -0.0189783449
 H         -1.1965947338       -4.4711823919       -1.0286158728
 H          1.0432999627       -5.1407874834       -1.8177820499
 H          2.9876054385       -3.6881454559       -1.4093773128
 C          3.0643600362       -1.3200485035       -0.0721671144
 H          3.7742337427       -1.4950483001       -0.8939064753
 C          3.7542132403       -1.6633962614        1.2333715834
 C          4.7648586362       -2.7689168008        1.2632793786
 C          5.2077990159       -1.3441283383        1.4030155089
 H          5.5462613082       -0.9944036151        2.3663759337
 H          5.7161819995       -0.8832539474        0.5683421655
 H          4.9860564754       -3.2755164388        0.3363208150
 H          4.8008313122       -3.4062358385        2.1332266942
 H          3.1153315854       -1.5393248618        2.0978464593
 O          2.0837759555        0.5119401660        2.0808516271
