  62
        -98.94297978
 C          1.5029322897        1.3357594402       -0.3376413292
 C          1.5813878502       -0.0520915397       -0.6152987393
 C          2.6682509002       -0.7799627195        0.0616959609
 C          3.4703787697       -0.1315163694        0.9233022013
 C          4.6371387396       -0.7435660092        1.6420747317
 C          5.9325926799       -0.5879959287        0.8329925521
 C          5.8024401805       -1.0130367585       -0.6296453380
 H          5.1173438905       -0.3309821886       -1.1381824181
 H          6.7836773306       -0.8887122281       -1.0926655076
 C          5.3211408210       -2.4567712586       -0.8305914883
 H          5.9391021914       -2.9284543283       -1.5975548782
 H          5.4582573509       -3.0244165887        0.0904917816
 C          3.8673248512       -2.5830042090       -1.2900078389
 H          3.7019199713       -1.9440583089       -2.1610732688
 H          3.6987869616       -3.6163995790       -1.6044254891
 C          2.8039017407       -2.2465199094       -0.2369201592
 H          2.9978923206       -2.8079545895        0.6796707808
 H          1.8319606210       -2.5644810197       -0.6259964596
 H          6.2314838995        0.4624816914        0.8591437924
 H          6.7144050799       -1.1760828685        1.3170679223
 H          4.7536113991       -0.2357829093        2.6012240818
 H          4.4319028999       -1.7968405592        1.8245654414
 O          3.3362963892        1.1906153805        1.2028233615
 C          2.3605609992        1.9489784503        0.5791692612
 O          2.3589795687        3.1520086603        0.9128085614
 O          0.8052852907       -0.6696574899       -1.3878100597
 C          0.4588900097        2.2577723500       -0.9463006894
 C         -0.7658253807        2.3419137795       -0.0684516498
 C         -1.4259856511        3.5509911693        0.1198247601
 C         -2.5497893314        3.6182899988        0.9240236997
 C         -3.0301977113        2.4881069386        1.5595825394
 C         -2.3660787609        1.2761252888        1.3936684194
 C         -1.2498548706        1.2107197992        0.5721487798
 H         -0.7361503003        0.2710426194        0.4596860499
 N         -2.8010699908        0.1383457186        2.0760055791
 S         -2.4437267802       -1.4348490713        1.6596719390
 O         -3.2291854703       -2.2122872616        2.5957945786
 O         -1.0210550701       -1.6590396308        1.6887552295
 C         -3.1194595795       -1.6607516712        0.0250090188
 C         -4.4932670595       -1.7932760616       -0.0654328217
 C         -5.0744877390       -1.9627082316       -1.3101199220
 C         -4.2742274085       -2.0002463112       -2.4427281017
 C         -2.8996055786       -1.8689571308       -2.3341493012
 C         -2.3092303591       -1.6927101208       -1.0906573310
 H         -1.2408721792       -1.5747587605       -0.9941275106
 H         -2.2717102283       -1.8992510205       -3.2100559310
 H         -4.7234036682       -2.1350387412       -3.4140594219
 H         -6.1442114489       -2.0671653119       -1.3943464724
 H         -5.0752709998       -1.7818395819        0.8417220780
 H         -3.6685308210        0.2258375882        2.5812155988
 H         -3.8993474316        2.5425691682        2.1967741291
 H         -3.0541266217        4.5623613486        1.0634053097
 H         -1.0401622012        4.4444424494       -0.3485910096
 H          0.9224616294        3.2579770501       -0.9510461391
 C          0.1193093303        1.9088475801       -2.3893545996
 C         -1.1816896994        1.2946460397       -2.7993651801
 C         -0.8876674797        2.7201707199       -3.1500572598
 H         -0.6750295794        2.9676577101       -4.1790439697
 H         -1.4233005401        3.4868932796       -2.6122003099
 H         -1.1575983989        0.5500855999       -3.5793337602
 H         -1.9128163396        1.0943289594       -2.0312448204
 H          0.9968917306        1.5870466404       -2.9403961293
