  62
        -98.93940862
 C         -0.9047046632       -1.5114938281       -0.4051230461
 C         -2.1096712063       -1.6346441568        0.3305708322
 C         -3.2018327606       -0.6971448113        0.0088971860
 C         -2.9970345329        0.2238115045       -0.9505337336
 C         -3.9661653680        1.2541508325       -1.4682545486
 C         -4.1638796285        2.4524771121       -0.5229459353
 C         -4.1810558728        2.1064429498        0.9640592367
 H         -3.2849660112        1.5339815703        1.2103708109
 H         -4.1393645662        3.0421123379        1.5279369202
 C         -5.4176368431        1.3422217454        1.4301056134
 H         -6.3031715536        1.9608492546        1.2656845359
 H         -5.3205069103        1.1809523574        2.5067326521
 C         -5.6482461347       -0.0126457685        0.7617855504
 H         -5.9905890010        0.1141172317       -0.2615538116
 H         -6.4596478320       -0.5092205706        1.3022384075
 C         -4.4529898362       -0.9597051394        0.8116840753
 H         -4.1235733024       -1.0640474968        1.8516280679
 H         -4.7900531444       -1.9607347273        0.5155285156
 H         -5.0948270140        2.9546378307       -0.7912671517
 H         -3.3451157191        3.1532838095       -0.6953250603
 H         -4.9154710586        0.7726077291       -1.6885931242
 H         -3.5574971804        1.6185237938       -2.4132181013
 O         -1.8069953584        0.3354973644       -1.6035969346
 C         -0.7433303238       -0.5194812346       -1.3712484353
 O          0.2485868727       -0.2867674094       -2.0884823051
 O         -2.2810905561       -2.5137655196        1.2178798662
 C          0.1845127666       -2.5298833577       -0.1130045754
 C          1.2477406888       -1.9596451553        0.7945976831
 C          1.3207983673       -2.3754233297        2.1201354880
 C          2.2981701161       -1.8794361330        2.9633068268
 C          3.2159102099       -0.9541593037        2.5016580619
 C          3.1449539613       -0.5226621308        1.1809061009
 C          2.1659172729       -1.0249512328        0.3344887256
 H          2.1203470939       -0.6762896514       -0.6851908717
 N          4.0656440971        0.4159208317        0.6975608951
 S          3.6473122858        1.5158505246       -0.4844763191
 O          3.7013844123        0.9010777256       -1.7855942094
 O          4.5780525752        2.6096572786       -0.2805368471
 C          2.0012050056        2.0860310240       -0.1009996127
 C          1.6489945001        2.2872749125        1.2191694764
 C          0.3894802559        2.7847459390        1.5080183403
 C         -0.4869652209        3.0857190736        0.4772738189
 C         -0.1147865663        2.8885236879       -0.8422902345
 C          1.1409867341        2.3813106478       -1.1373632967
 H          1.4570405495        2.1894619990       -2.1497610447
 H         -0.7971300260        3.1140486373       -1.6463221362
 H         -1.4653702124        3.4767433673        0.7078436138
 H          0.0946618078        2.9374160847        2.5338666846
 H          2.3486708947        2.0554373260        2.0054192511
 H          4.6806572135        0.8181504756        1.3892887603
 H          3.9839653483       -0.5669861044        3.1537062102
 H          2.3457229464       -2.2145630684        3.9880993258
 H          0.5957722370       -3.0873589608        2.4865502032
 H         -0.3237968729       -3.3318415655        0.4402578661
 C          0.7929451598       -3.1303178718       -1.3647817902
 C          1.4666075053       -4.4654468612       -1.2725797980
 C          0.1532497991       -4.3355476343       -1.9829715129
 H          0.1360218705       -4.4137410193       -3.0597469818
 H         -0.7279254683       -4.7356504588       -1.5025495992
 H          2.3558760482       -4.6341347510       -1.8603888725
 H          1.4750584666       -4.9559856910       -0.3108880625
 H          1.2199035704       -2.3971778568       -2.0368355864
