  62
        -98.94114653
 C         -2.6860498271       -0.3786939987        0.1033248628
 C         -2.2692565321       -1.1383095915       -1.0213750711
 C         -1.6610084177       -2.4452289229       -0.7500433792
 C         -1.5436175022       -2.8568467922        0.5246961912
 C         -0.9550818275       -4.1689946955        0.9571488312
 C          0.5411924548       -4.0503875115        1.2712783499
 C          1.3537801220       -3.3587883952        0.1766162829
 H          1.0782733994       -2.3020730256        0.1372639579
 H          2.4030519870       -3.3980315271        0.4803286831
 C          1.2032798029       -3.9734280075       -1.2220526821
 H          0.8182533563       -4.9912722929       -1.1425703884
 H          2.1924242244       -4.0334506755       -1.6806190202
 C          0.3207750006       -3.1636765572       -2.1751222673
 H          0.6131626059       -2.1111997690       -2.1287626771
 H          0.5044233027       -3.5163309751       -3.1939115501
 C         -1.1905052939       -3.2540270812       -1.9249880453
 H         -1.7008791626       -2.8362818691       -2.7978533182
 H         -1.4873467230       -4.3003607811       -1.8201584720
 H          0.9361340490       -5.0542012429        1.4422332097
 H          0.6583572352       -3.4739879320        2.1921962688
 H         -1.4794547728       -4.4950085661        1.8576222623
 H         -1.1141078837       -4.9037660804        0.1698137907
 O         -1.9512781774       -2.1074417799        1.5782246048
 C         -2.4867194191       -0.8329030669        1.4071338485
 O         -2.7515570665       -0.2655277665        2.4829917907
 H         -0.7229165230        1.0876625470        0.7435161588
 C         -0.8773789881        1.7991899605       -0.0550720657
 C         -2.1215005868        1.9024855966       -0.6573778784
 C         -2.2893098173        2.8265976837       -1.6824063054
 C         -1.2337689455        3.6227386659       -2.0905195099
 C          0.0166848920        3.4854378063       -1.5145547240
 C          0.1958866448        2.5574454187       -0.4962186686
 N          1.4544806795        2.3402983699        0.0969551892
 S          1.8529870968        0.7003746795        0.2879385209
 O          1.4062119901       -0.0392731821       -0.8688296588
 O          1.3776888305        0.2512635960        1.5724998268
 C          3.6340431824        0.7890022231        0.3144275339
 C          4.3515364300        0.4218934749       -0.8078328794
 C          5.7337209610        0.5269225214       -0.7832483611
 C          6.3699948114        0.9982707168        0.3550753905
 C          5.6358103751        1.3615434139        1.4747293865
 C          4.2541382099        1.2569679145        1.4578151243
 H          3.6420048692        1.5169448851        2.3057134146
 H          6.1339052674        1.7245538700        2.3591766869
 H          7.4452415502        1.0802279394        0.3714429831
 H          6.3066782947        0.2409476299       -1.6504848613
 H          3.8121228908        0.0556859810       -1.6666387061
 H          2.1952734760        2.8372464652       -0.3811198968
 H          0.8495535141        4.0805856016       -1.8574013502
 H         -1.3778829938        4.3380096554       -2.8859841582
 H         -3.2460208464        2.8993197728       -2.1784719298
 C         -3.2467932372        0.9985319523       -0.2147221848
 H         -3.9049896557        0.8553463792       -1.0886751688
 C         -4.0861713448        1.6122019793        0.8936018607
 C         -3.5519140595        2.6491912220        1.8307130618
 C         -4.5673295602        3.0299704458        0.7979205944
 H         -5.5732347855        3.2499779977        1.1214609113
 H         -4.2288737435        3.6234140909       -0.0371088800
 H         -3.8480388296        2.5879499276        2.8663672305
 H         -2.5316035577        2.9735677395        1.6917558894
 H         -4.7765219567        0.8930142337        1.3205380503
 O         -2.4265525827       -0.7378913956       -2.2073637007
