  62
        -98.94478507
 C          1.8489022404        0.7428341310        0.4126311969
 C          2.4617872843        0.1611612559       -0.7237432971
 C          3.5196120426       -0.8183798936       -0.4425217519
 C          3.8107713331       -1.1450764371        0.8296132607
 C          4.8414742063       -2.1474320954        1.2735872142
 C          6.2675746536       -1.5853444488        1.3508376789
 C          6.9381480301       -1.3242005335        0.0015810312
 H          7.9963811192       -1.1430229513        0.2000752755
 H          6.8719461074       -2.2210307982       -0.6152277566
 C          6.3675450585       -0.1243934793       -0.7674348809
 H          5.7914407129        0.5048978085       -0.0851998045
 H          7.1882963410        0.4863963614       -1.1499621849
 C          5.4862130401       -0.4967095752       -1.9598310322
 H          6.0860926575       -1.0139299903       -2.7119441691
 H          5.1071630379        0.4254938205       -2.4074106799
 C          4.2826829559       -1.3794357802       -1.6040558964
 H          3.6073651584       -1.4035164775       -2.4630218185
 H          4.6117058554       -2.3962263208       -1.3899283617
 H          6.2476821968       -0.6611406735        1.9329515832
 H          6.8734727018       -2.3103397228        1.8992407847
 H          4.5462307484       -2.4751333711        2.2728734727
 H          4.8244847617       -3.0101433940        0.6067784428
 O          3.1600107629       -0.6009029213        1.8929868032
 C          2.1791107549        0.3618632312        1.7124230470
 O          1.6718957240        0.7837818621        2.7726213976
 H         -0.4237663045       -0.5251062955        0.7698698730
 C         -0.8967744307       -0.0403185129       -0.0758147617
 C         -0.4076818222        1.1860581417       -0.5103468145
 C         -1.0344373429        1.8049619790       -1.5832410579
 C         -2.0987673118        1.1913925685       -2.2226103322
 C         -2.5668645567       -0.0393821687       -1.8026888490
 C         -1.9607078246       -0.6567995515       -0.7150947894
 N         -2.4406606981       -1.8980465908       -0.2648225446
 S         -4.0966804740       -2.1003364625       -0.1378274046
 O         -4.2785053819       -3.0914283221        0.8996333443
 O         -4.6447717216       -2.4354565326       -1.4285887537
 C         -4.7260246863       -0.5160676359        0.3896409542
 C         -4.2625318340        0.0046349865        1.5816862140
 C         -4.7158875496        1.2478719879        1.9912063595
 C         -5.6207072043        1.9458687536        1.2057095139
 C         -6.0810275331        1.4069651709        0.0146155129
 C         -5.6292289167        0.1645979875       -0.4010008337
 H         -5.9577718435       -0.2901955030       -1.3212334946
 H         -6.7859153822        1.9511188456       -0.5928903950
 H         -5.9681348506        2.9152671396        1.5262628149
 H         -4.3578472888        1.6676513285        2.9176577598
 H         -3.5616099590       -0.5632332383        2.1728810735
 H         -1.9621247302       -2.2538684449        0.5490773967
 H         -3.3811834500       -0.5380698810       -2.3027183656
 H         -2.5677853102        1.6776134418       -3.0641114555
 H         -0.6832427063        2.7632385649       -1.9280020519
 C          0.7603717340        1.7862170226        0.2352393113
 H          0.4183492653        2.0426391309        1.2486896571
 C          1.3251555600        3.0299762354       -0.4180982909
 C          0.7172103561        4.3708760452       -0.1400281136
 C          2.0578131352        4.0227715768        0.4317652341
 H          2.9355415357        4.5021259028        0.0247877758
 H          2.1267922878        3.8145793614        1.4899310169
 H         -0.1252327669        4.4080296405        0.5337426625
 H          0.6760560937        5.0946515445       -0.9398921318
 H          1.7155181453        2.8377549659       -1.4106664283
 O          2.1436964733        0.4390695328       -1.9083262791
