  62
        -98.94448542
 C         -1.9681844592       -1.1224000094       -0.1523793704
 C         -2.4234547891        0.0374055812       -0.8244465495
 C         -3.8749371690        0.2604366115       -0.7915349492
 C         -4.6770273891       -0.6291883388       -0.1790163498
 C         -6.1771411491       -0.5536186686       -0.0882530396
 C         -6.6905263888        0.3253195807        1.0605177211
 C         -6.5109480586        1.8304830108        0.8586080022
 H         -6.9242583686        2.1182400816       -0.1085517376
 H         -7.1037848384        2.3298599503        1.6275372026
 C         -5.0578238585        2.3143691404        0.9640505824
 H         -5.0154597882        3.2077069199        1.5911405831
 H         -4.4531979086        1.5494320699        1.4565611318
 C         -4.4088465085        2.6698014313       -0.3737724674
 H         -4.9224296284        3.5273357417       -0.8143496067
 H         -3.3710819284        2.9580211609       -0.1861169772
 C         -4.4031838188        1.5258844620       -1.3962834182
 H         -3.7381424288        1.8039098625       -2.2177476181
 H         -5.4057831089        1.3708391825       -1.7945045082
 H         -7.7574621789        0.1205569208        1.1750099310
 H         -6.1924874688        0.0197531599        1.9834920908
 H         -6.5832225491       -0.1927603978       -1.0336032093
 H         -6.5301400293       -1.5741198186        0.0751490897
 O         -4.2000190893       -1.7466039894        0.4317700293
 C         -2.8402341894       -2.0075884397        0.4813575790
 O         -2.5374916295       -3.0430135202        1.1084323382
 O         -1.6649952890        0.8441178615       -1.4224679090
 C         -0.4835202593       -1.4407541397       -0.1067874607
 C          0.2641233110       -0.2761543303        0.4947092701
 C         -0.1189703288        0.1755865188        1.7559842804
 C          0.5093298414        1.2568385383        2.3407497612
 C          1.5419145315        1.9052086386        1.6851216216
 C          1.9361030413        1.4604882694        0.4295136112
 C          1.3036066011        0.3695420600       -0.1543412996
 H          1.6176113909        0.0610743206       -1.1365708498
 N          2.9635221614        2.1187637097       -0.2635852284
 S          4.1439835512        1.2696163301       -1.0840781091
 O          5.1727527113        2.2507317201       -1.3495252685
 O          3.5856186509        0.6041100011       -2.2324159596
 C          4.7385754510        0.0774117391        0.1012082399
 C          4.2425541208       -1.2101007708        0.0881118890
 C          4.6724534007       -2.1017465316        1.0585294383
 C          5.5836448308       -1.6928658425        2.0197679986
 C          6.0754609111       -0.3961358726        2.0170079295
 C          5.6471172212        0.5005444982        1.0521715802
 H          6.0135548514        1.5133084482        1.0069834209
 H          6.7880362512       -0.0828121233        2.7629167296
 H          5.9143318808       -2.3904787531        2.7730224280
 H          4.2930464505       -3.1112297815        1.0601204876
 H          3.5391715206       -1.4936310801       -0.6770840411
 H          3.3621589816        2.9046949493        0.2284676521
 H          2.0279032017        2.7575299481        2.1351780022
 H          0.1950731616        1.5995524976        3.3151317214
 H         -0.9293914389       -0.3296059214        2.2644907601
 H         -0.3796578594       -2.3025674802        0.5684017086
 C          0.0052988205       -1.8409479488       -1.4825609611
 C          1.1580980403       -2.7870013989       -1.6252666319
 C         -0.2309891598       -3.2423799084       -1.9561092521
 H         -0.4925324899       -3.3993287976       -2.9918171222
 H         -0.7246139799       -3.9188895388       -1.2733668526
 H          1.8557260203       -2.6306818385       -2.4351186318
 H          1.6043427503       -3.1673822997       -0.7185661722
 H         -0.0981242794       -1.0473770282       -2.2141430205
