  62
        -98.94424860
 C         -2.2633113195       -1.0920350394        0.2281032502
 C         -2.3932014090        0.0697772601       -0.5706744105
 C         -3.3010939989        1.1066182907       -0.0553745213
 C         -3.9102985491        0.9293539415        1.1303432787
 C         -4.8905829990        1.8834813921        1.7470133979
 C         -6.3304973190        1.5458686122        1.3350331679
 C         -6.5113210788        1.3426160014       -0.1691888220
 H         -5.9578612490        0.4527922210       -0.4775260114
 H         -7.5699396888        1.1400218815       -0.3449201521
 C         -6.0697504584        2.5356318007       -1.0282754127
 H         -6.0017754783        3.4321735711       -0.4110340132
 H         -6.8319717382        2.7219079805       -1.7877266929
 C         -4.7464145783        2.3293781500       -1.7675537923
 H         -4.7759088584        1.3840256196       -2.3151333217
 H         -4.6393054679        3.1307469695       -2.5035618828
 C         -3.4855568584        2.3406699402       -0.8937493321
 H         -2.6184099183        2.3843132496       -1.5595859819
 H         -3.4783805883        3.2355278306       -0.2677986326
 H         -6.9840774489        2.3504299826        1.6767924273
 H         -6.6287603993        0.6260054926        1.8431070684
 H         -4.8049895692        1.8085338928        2.8324005780
 H         -4.6420418187        2.8985323319        1.4430238074
 O         -3.7324692695       -0.1809046681        1.8893690994
 C         -2.9190064697       -1.2129861585        1.4583553202
 O         -2.8613467301       -2.1781583081        2.2456602108
 H          0.2730606310       -0.5818494311       -1.4929339396
 C          0.7667708107       -1.0444610707       -0.6516386892
 C          0.0640838003       -1.9404985800        0.1411668312
 C          0.7014751500       -2.4915506795        1.2471601016
 C          2.0100706400       -2.1557518197        1.5457326017
 C          2.7069407704       -1.2615888603        0.7524784912
 C          2.0735570607       -0.6944024608       -0.3451915792
 N          2.7674013211        0.2309986685       -1.1482883697
 S          3.4630324913        1.5450074788       -0.3646408903
 O          2.7489879711        1.8820400097        0.8462078093
 O          3.5573171917        2.5842985482       -1.3668614509
 C          5.1040310611        0.9761289487        0.0309039703
 C          5.8882833111        0.4863785979       -0.9952846292
 C          7.1695193110        0.0452174077       -0.7057030987
 C          7.6434791008        0.1037398184        0.5965818513
 C          6.8452164007        0.6018425992        1.6148463409
 C          5.5619619609        1.0438432294        1.3320879804
 H          4.9021640708        1.4318374900        2.0918558100
 H          7.2149827705        0.6470404097        2.6266601309
 H          8.6408058506       -0.2411592817        0.8194790717
 H          7.7932657610       -0.3429100929       -1.4947106784
 H          5.4824631613        0.4604357474       -1.9927241093
 H          2.2227220713        0.5484586482       -1.9384449299
 H          3.7241851904       -0.9907542704        0.9838608313
 H          2.4923714398       -2.5927691892        2.4068058220
 H          0.1536500597       -3.1713869890        1.8838931519
 C         -1.3793432997       -2.2712491699       -0.1549711089
 H         -1.6766716500       -3.0902242794        0.5131869616
 C         -1.5811976495       -2.7249694807       -1.5870774587
 C         -1.1130614098       -4.0913273610       -1.9847801277
 C         -2.5797402297       -3.8026414706       -1.8787885782
 H         -3.1609287896       -3.7338870310       -2.7861953383
 H         -3.1234938600       -4.2200688600       -1.0436135080
 H         -0.6612626501       -4.7053430307       -1.2204738773
 H         -0.6845296296       -4.2233663517       -2.9663029676
 H         -1.4887449492       -1.9284988312       -2.3131477391
 O         -1.7971960288        0.2557549093       -1.6663203005
