  62
        -98.93830815
 C         -1.2516377435       -1.4033724666        0.5964967445
 C         -2.1800890305       -1.1912954257       -0.4475968633
 C         -3.2167966100       -0.1601059642       -0.2162383349
 C         -3.1676510321        0.5757323634        0.9090587167
 C         -4.1150455740        1.6524470642        1.3748831259
 C         -3.9859546631        2.9812291118        0.6142866664
 C         -3.8476174095        2.8458541850       -0.8993154366
 H         -3.6449425374        3.8399465973       -1.3063569325
 H         -2.9876762153        2.2152550932       -1.1301911614
 C         -5.0793398264        2.2890768776       -1.6078462773
 H         -5.9433955073        2.9165497482       -1.3785007885
 H         -4.8963513272        2.3579176632       -2.6831757670
 C         -5.4254575027        0.8351428477       -1.2792918912
 H         -6.1387223766        0.4912021878       -2.0338338514
 H         -5.9297933729        0.7546776220       -0.3200124168
 C         -4.2372254724       -0.1202471011       -1.3287013311
 H         -4.6175392270       -1.1457675147       -1.4056429453
 H         -3.6783264035        0.0458439031       -2.2566229472
 H         -4.8595685811        3.5931295234        0.8461066052
 H         -3.1059198005        3.5080808041        0.9914967896
 H         -5.1362572642        1.2838450022        1.3253507553
 H         -3.8826347431        1.8319235450        2.4271339180
 O         -2.1747233558        0.4155098076        1.8325905352
 C         -1.2221793555       -0.5733573140        1.7196254895
 O         -0.4120842773       -0.6216821726        2.6676168921
 H          2.0297128746       -1.3766397168        1.4701261639
 C          2.0513797051       -1.4650925928        0.3917105110
 C          0.9713965337       -2.0452347686       -0.2603381267
 C          0.9917438149       -2.1177642407       -1.6483182900
 C          2.0741056829       -1.6288921673       -2.3586272523
 C          3.1511281275       -1.0548736821       -1.7053666673
 C          3.1324618676       -0.9680135784       -0.3203431417
 N          4.2058054931       -0.3329766059        0.3491576776
 S          4.3153693024        1.3102993422        0.0225777851
 O          4.8659983622        1.4891868505       -1.2962841514
 O          5.0738807344        1.8800297921        1.1126553646
 C          2.6203005220        1.8619165664        0.0633188313
 C          2.0242246389        2.0555741348        1.2932192469
 C          0.6771112741        2.3719442870        1.3428879754
 C         -0.0473476108        2.4735100692        0.1660262251
 C          0.5639113961        2.2733912992       -1.0613724686
 C          1.9124807025        1.9627397048       -1.1170974864
 H          2.4259140413        1.7983289865       -2.0501078772
 H         -0.0085807062        2.3497416928       -1.9720708238
 H         -1.0992819915        2.7051742172        0.2081975021
 H          0.1912809312        2.5134747350        2.2951164381
 H          2.6188017478        1.9635809320        2.1883194365
 H          4.1663365799       -0.4625582195        1.3512223895
 H          3.9937248224       -0.6528610145       -2.2445002784
 H          2.0778424749       -1.6914538220       -3.4362023294
 H          0.1416197583       -2.5310636169       -2.1668225984
 C         -0.2060274913       -2.5086127337        0.5609070579
 H          0.1388684650       -2.6172773034        1.5982404188
 C         -0.7606739840       -3.8412104284        0.1024747114
 C          0.0241636390       -5.0851692196        0.3865570149
 C         -1.2518106214       -4.8184301012        1.1259277027
 H         -2.1196565292       -5.4166445793        0.8920037052
 H         -1.1888500864       -4.5315066813        2.1658283344
 H          0.0350233785       -5.8687190177       -0.3552685999
 H          0.9540224383       -4.9774217345        0.9248344914
 H         -1.3057849321       -3.7900646022       -0.8299323240
 O         -2.1864352336       -1.8351030596       -1.5288625990
