  62
        -98.93472590
 C          2.0135034602        0.5689097206        0.1720257896
 C          2.7140452702       -0.5706030893        0.6389092199
 C          4.0747288401       -0.7862666695        0.1191986599
 C          4.5865969202        0.0922648502       -0.7627129903
 C          5.9117137101        0.1157839900       -1.4956726604
 C          7.0568381101       -0.7981262600       -1.0681079502
 C          7.6645701102       -0.4653771897        0.2941423797
 H          8.3965235401       -1.2378253097        0.5400154998
 H          8.1985907702        0.4848095603        0.2130457694
 C          6.6705807202       -0.3377228794        1.4457576297
 H          7.2354084503       -0.0902054192        2.3486655596
 H          5.9910221003        0.4949610406        1.2532915495
 C          5.8481787302       -1.5902894092        1.7418869800
 H          5.3051861402       -1.4146591390        2.6745454900
 H          6.5156231801       -2.4397973992        1.8995346602
 C          4.8130455501       -1.9723577294        0.6697223601
 H          4.0589902401       -2.6101112793        1.1403919703
 H          5.2690515600       -2.5471744697       -0.1330730598
 H          7.8445681401       -0.6817423502       -1.8175022503
 H          6.7421770801       -1.8370432400       -1.1023741300
 H          5.6728088401       -0.0960379502       -2.5438191903
 H          6.2522535902        1.1556547700       -1.4628855607
 O          3.8725102902        1.1717640202       -1.1913142506
 C          2.5823842502        1.4424960903       -0.7537191106
 O          2.0901912503        2.4656751203       -1.2609466908
 O          2.2162219702       -1.3831624891        1.4651442701
 C          0.6124083103        0.7738384808        0.7179598296
 C         -0.4060484998        0.0889683506       -0.1566661502
 C         -0.4386606999        0.3071416303       -1.5303901102
 C         -1.3869958999       -0.3192982198       -2.3184426400
 C         -2.3245489499       -1.1670563696       -1.7544350998
 C         -2.3047457199       -1.3857320093       -0.3838556598
 C         -1.3479541898       -0.7602071192        0.4051106501
 H         -1.3262636298       -0.9489530989        1.4698772701
 N         -3.2852000799       -2.2173048791        0.1945075405
 S         -4.8739748699       -1.7288751891       -0.0455262096
 O         -5.6344649399       -2.3569514988        1.0103696006
 O         -5.2710759000       -2.0460461894       -1.3931042995
 C         -4.8108122698        0.0384768610        0.1829891600
 C         -4.6999766298        0.8672966307       -0.9151521002
 C         -4.5372167497        2.2283999107       -0.7118584005
 C         -4.4878751196        2.7344493210        0.5773897293
 C         -4.6116641997        1.8898197013        1.6700866796
 C         -4.7676471697        0.5273990613        1.4738378399
 H         -4.8682835597       -0.1619128586        2.2971595000
 H         -4.5773261696        2.2880310315        2.6714572295
 H         -4.3486685596        3.7923136611        0.7322042691
 H         -4.4417858897        2.8880901405       -1.5592320807
 H         -4.7461589999        0.4366654605       -1.9016487901
 H         -3.1253857299       -2.4011604689        1.1749858005
 H         -3.0748436000       -1.6585219397       -2.3526150097
 H         -1.3977302599       -0.1444446901       -3.3836532101
 H          0.2839781302        0.9779323402       -1.9700723104
 H          0.6148611303        0.2525761010        1.6883982098
 C          0.2665065703        2.2326906309        0.9856700593
 C         -0.7904440996        2.9840456108        0.2380638692
 C         -1.0295550296        2.5766465311        1.6586071693
 H         -1.0288356996        3.3352052413        2.4261515191
 H         -1.7268008397        1.7703484812        1.8312419395
 H         -0.5983001796        4.0225354807        0.0174103289
 H         -1.3356895797        2.4681758106       -0.5364366607
 H          1.1375847904        2.8055086209        1.2856958191
