  62
        -98.94884271
 C         -1.7006931520       -1.2691746451       -0.2275002662
 C         -0.6574161919       -1.7458755443       -1.0545176189
 C          0.3406557606       -2.6027480601       -0.4047863337
 C          0.2269239039       -2.8619260782        0.9106642867
 C          1.1904830064       -3.6985176106        1.7019975730
 C          2.2999720482       -2.8433574191        2.3281056779
 C          2.9699598899       -1.8794843895        1.3485580977
 H          2.2425007952       -1.1186919585        1.0544573422
 H          3.7592918497       -1.3627668581        1.9007217122
 C          3.5680763077       -2.5438513788        0.1007740088
 H          4.5548132078       -2.1137441592       -0.0815250539
 H          3.7073614770       -3.6102612632        0.2833261386
 C          2.7539445736       -2.3498943511       -1.1793889809
 H          3.3758713770       -2.6507131542       -2.0263789351
 H          2.5172339878       -1.2902253280       -1.3035505587
 C          1.4469363079       -3.1470540478       -1.2639681336
 H          1.0838082928       -3.0826184832       -2.2938113964
 H          1.6368839308       -4.1966191743       -1.0304868916
 H          3.0489731780       -3.5113991821        2.7588245803
 H          1.8659692115       -2.2487265779        3.1357647128
 H          1.6254778458       -4.4536830939        1.0495223248
 H          0.6361678103       -4.1962673623        2.4998365092
 O         -0.7762306670       -2.3679830516        1.6797734002
 C         -1.7460212940       -1.5365456265        1.1407791658
 O         -2.5883837672       -1.1275502223        1.9637050223
 O         -0.5683792796       -1.4695290786       -2.2824356570
 C         -2.7527140956       -0.3574329685       -0.8336361956
 C         -2.6440451593        1.0144035779       -0.2149434516
 C         -3.7369292809        1.7640420399        0.1987386482
 C         -3.5502421146        3.0025180900        0.7894464520
 C         -2.2800249958        3.5089615907        0.9918849755
 C         -1.1798573691        2.7716703471        0.5667094145
 C         -1.3718608000        1.5506353067       -0.0561974133
 H         -0.5153580881        0.9775738890       -0.3807994185
 N          0.1263758084        3.2566391452        0.7369193906
 S          1.3981021795        2.2203009447        1.0682849303
 O          0.9496490188        0.9711054229        1.6378483787
 O          2.3065392385        2.9960441529        1.8884806135
 C          2.1920482967        1.9244667926       -0.5007685837
 C          3.4261557829        1.3041930940       -0.4566029710
 C          4.0954838616        1.0451751605       -1.6414626799
 C          3.5210559671        1.4093732445       -2.8495888217
 C          2.2852859035        2.0352726693       -2.8777412629
 C          1.6112433348        2.2998520040       -1.6945392839
 H          0.6491715296        2.7852970727       -1.6949766462
 H          1.8381362141        2.3169388852       -3.8175107491
 H          4.0384330600        1.2028484754       -3.7730029058
 H          5.0566973279        0.5576849619       -1.6182291103
 H          3.8349988833        1.0378162843        0.5048268732
 H          0.2008078312        4.1087075338        1.2725518049
 H         -2.1355328016        4.4622754746        1.4770264931
 H         -4.4069289873        3.5741165449        1.1129105022
 H         -4.7336545276        1.3746138557        0.0719685132
 H         -2.4864115210       -0.2753763969       -1.8985029616
 C         -4.1329499736       -0.9682915819       -0.7207502485
 C         -5.1834343478       -0.6570264737       -1.7437271088
 C         -4.5455366195       -2.0123229232       -1.7134195148
 H         -5.1279524885       -2.8520906138       -1.3653798809
 H         -3.8382775033       -2.2640563289       -2.4901337321
 H         -6.2090541781       -0.5680417670       -1.4186480658
 H         -4.9149706282        0.0098197734       -2.5489113572
 H         -4.4423564752       -1.1073685035        0.3090099677
