  62
        -98.94601631
 C         -2.0103536843       -0.2563496913        0.5123956003
 C         -1.6630948343        0.9012064201        1.2530173873
 C         -1.7393929931        2.1793729812        0.5377055658
 C         -2.0689089042        2.1919138142       -0.7662146226
 C         -2.1935153581        3.4120731783       -1.6379272943
 C         -0.8557931040        3.8960315025       -2.2141759033
 C          0.0611095245        4.6028049896       -1.2152005639
 H          0.8475692611        5.0919553659       -1.7934568995
 H         -0.4984257964        5.3831006160       -0.6973457151
 C          0.7155282639        3.6654359748       -0.1908134057
 H          0.6600432579        2.6372176064       -0.5589670287
 H          1.7775835188        3.9088360136       -0.1017770892
 C          0.1139024789        3.7439283914        1.2127218554
 H          0.2794055274        4.7429218760        1.6227650063
 H          0.6379216566        3.0294046340        1.8513577052
 C         -1.3867642994        3.4323424728        1.2832219659
 H         -1.6546675454        3.2797595770        2.3319305301
 H         -1.9618759300        4.2729126108        0.8946814864
 H         -0.3300038000        3.0384519008       -2.6426690578
 H         -1.0808904418        4.5912276599       -3.0266913122
 H         -2.8467405335        3.1348339462       -2.4682498583
 H         -2.6655475072        4.2203453600       -1.0779954742
 O         -2.3538082423        1.0585313148       -1.4560624356
 C         -2.3011368808       -0.1907586154       -0.8523164358
 O         -2.5481615508       -1.1309150884       -1.6310596231
 O         -1.3014603464        0.8683898405        2.4605617617
 C         -1.8927715188       -1.6042326111        1.2078617014
 C         -1.0405487861       -2.5050256587        0.3500339752
 C         -1.4398408690       -3.7351997774       -0.1511072572
 C         -0.6113037497       -4.4327958915       -1.0144384206
 C          0.6052969807       -3.9116757604       -1.4138525435
 C          1.0183256387       -2.6837257133       -0.9060111293
 C          0.2143715709       -2.0207786719        0.0024046796
 H          0.5320323951       -1.0693366078        0.3974417175
 N          2.2399891022       -2.1125882455       -1.2863421991
 S          2.4846889256       -0.4559441857       -1.2732811985
 O          1.2732323519        0.2942508453       -1.5059594423
 O          3.5522125817       -0.2538672537       -2.2311526764
 C          3.1284045131       -0.1596184387        0.3610494553
 C          2.3937820111        0.5397472464        1.2959967288
 C          2.9228561882        0.7293799153        2.5631970134
 C          4.1744274553        0.2207071533        2.8720924941
 C          4.9051054923       -0.4747730233        1.9199505295
 C          4.3792180334       -0.6689475889        0.6535321069
 H          4.9161622265       -1.1947454007       -0.1181247270
 H          5.8796504418       -0.8667459872        2.1623660214
 H          4.5809353417        0.3695100788        3.8599556181
 H          2.3462637770        1.2665962208        3.2998225021
 H          1.4205069775        0.9233029075        1.0299728633
 H          2.7048103384       -2.5628630223       -2.0601681810
 H          1.2259091019       -4.4397091318       -2.1217671646
 H         -0.9331015586       -5.3855802100       -1.4073337149
 H         -2.4095639035       -4.1316518242        0.1014296285
 H         -1.3338797442       -1.3828670494        2.1330781289
 C         -3.2112802774       -2.2255969598        1.6380684303
 C         -4.4089806939       -1.3701355762        1.9213261889
 C         -4.4071805317       -2.2884240011        0.7378909557
 H         -5.0288960939       -3.1711577585        0.7761748776
 H         -4.3133193003       -1.8625426396       -0.2483151134
 H         -5.0307996317       -1.6191424353        2.7680915359
 H         -4.3168028978       -0.3084845645        1.7420884826
 H         -3.0600008183       -3.0717587165        2.3014738234
