  62
        -98.93832235
 C         -1.3856225871       -1.5162535041       -0.1509901199
 C         -2.5404984754       -1.2832766511        0.6345639015
 C         -3.4007102186       -0.1530308680        0.2398884825
 C         -3.0282274327        0.6156425335       -0.7989495639
 C         -3.7228592125        1.8224969289       -1.3766770734
 C         -4.2585774426        2.8514717999       -0.3689132219
 C         -5.7857925527        2.8855335221       -0.2916571351
 H         -6.0958090481        3.8645261601        0.0805944032
 H         -6.1882985191        2.7796225782       -1.3013319688
 C         -6.4129587693        1.8281392202        0.6154677297
 H         -6.2175836722        2.0854468997        1.6588199841
 H         -7.4950241172        1.8676809754        0.4692216318
 C         -5.9386582550        0.3929485992        0.3765874636
 H         -6.7087566168       -0.2794982096        0.7607993652
 H         -5.8471435202        0.1924347737       -0.6902642836
 C         -4.6232608278        0.0513210361        1.0923050878
 H         -4.7375473576       -0.8894183846        1.6398735318
 H         -4.4020878674        0.8105293698        1.8482058293
 H         -3.8347195177        2.6616004607        0.6159333118
 H         -3.9165455412        3.8381325249       -0.6851397797
 H         -4.5346189568        1.4792766842       -2.0227088613
 H         -2.9852918539        2.2919205017       -2.0317336377
 O         -1.9005739639        0.3608862429       -1.5210603914
 C         -1.0594819977       -0.7011659478       -1.2334163630
 O         -0.0856634343       -0.7943575215       -2.0048795088
 O         -2.8456691792       -1.9952411729        1.6281842049
 C         -0.4598259887       -2.6515367929        0.2573141506
 C          0.8062648844       -2.0184253673        0.7769712427
 C          0.8567838507       -1.5631959423        2.0918541827
 C          1.9612967314       -0.8764527883        2.5607193140
 C          3.0268511621       -0.6025714919        1.7202917829
 C          2.9773587217       -1.0412793405        0.4041433849
 C          1.8876152510       -1.7689361049       -0.0534063768
 H          1.8645845198       -2.0958746730       -1.0804625032
 N          4.0223170328       -0.7059581825       -0.4768901544
 S          4.5025126711        0.8986460995       -0.4694013691
 O          4.9430259114        1.1773503758       -1.8189726096
 O          5.4982373027        1.0899818273        0.5576033641
 C          3.0541981922        1.8665795645       -0.0687488994
 C          1.8898263279        1.6726453085       -0.7849567206
 C          0.7750656842        2.4312739457       -0.4655634187
 C          0.8408528641        3.3695885675        0.5522223956
 C          2.0197067813        3.5572322034        1.2571508757
 C          3.1363747868        2.7983938753        0.9468575397
 H          4.0699210526        2.9042709602        1.4754512155
 H          2.0699055313        4.2877078123        2.0484929735
 H         -0.0317247518        3.9549870108        0.7958173692
 H         -0.1407215711        2.2697692164       -1.0124894656
 H          1.8374939669        0.9313571068       -1.5671325637
 H          3.8584120696       -1.0191965003       -1.4232411372
 H          3.8879106755       -0.0489895208        2.0588887510
 H          1.9891985257       -0.5374014124        3.5849177167
 H          0.0084051916       -1.7409088589        2.7375460226
 H         -0.9641873217       -3.1556606794        1.0917836991
 C         -0.2404061327       -3.6514942041       -0.8575918084
 C          0.3779602633       -4.9785948437       -0.5371910433
 C         -1.0735733999       -4.8958994967       -0.8995732587
 H         -1.3882133046       -5.2722654834       -1.8614610577
 H         -1.8049299223       -5.0347168852       -0.1169944997
 H          1.0623424692       -5.4152352504       -1.2484475066
 H          0.6333290258       -5.1717887304        0.4937010030
 H          0.0059577818       -3.1941454867       -1.8079612022
