  62
        -98.93916320
 C         -1.3692961433       -1.7334993489       -0.2334240378
 C         -2.5239392195       -1.4198587653        0.5292745717
 C         -3.3706628829       -0.3368059736        0.0142478825
 C         -3.0365117083        0.2763961669       -1.1347583215
 C         -3.7981121707        1.3788974101       -1.8212366810
 C         -3.8660534867        2.7202394648       -1.0651195197
 C         -5.1260114299        2.8987719352       -0.2092869285
 H         -5.4727503400        3.9297257808       -0.3052323433
 H         -5.9175187519        2.2650165412       -0.6111678427
 C         -4.9594170380        2.6211789863        1.2881077377
 H         -4.4695164782        3.4772854260        1.7574097075
 H         -5.9571494549        2.5358931563        1.7240600345
 C         -4.1517474706        1.3751972388        1.6536225648
 H         -4.2820329816        1.1870172128        2.7210912087
 H         -3.0867140811        1.5677372912        1.5031572225
 C         -4.5273700078        0.1076518507        0.8608748105
 H         -5.4090721703        0.2836647625        0.2465609702
 H         -4.7449630113       -0.7113206206        1.5492111901
 H         -3.8491782829        3.5104424667       -1.8173097839
 H         -2.9727673108        2.8362622693       -0.4523220655
 H         -3.2946849140        1.5321307878       -2.7781924644
 H         -4.8108984873        1.0286021811       -2.0318078248
 O         -1.9337709172       -0.0717425314       -1.8506849726
 C         -1.0603742598       -1.0565830001       -1.4128516643
 O         -0.0800219200       -1.2206590601       -2.1651086636
 O         -2.8327775090       -2.0209517585        1.5914222412
 C         -0.4246066391       -2.7877929689        0.3238142604
 C          0.7817860210       -2.0512349093        0.8506287641
 C          0.7827331224       -1.5676000707        2.1559585922
 C          1.8247320692       -0.7854438926        2.6196328858
 C          2.8735294671       -0.4444048319        1.7830641091
 C          2.8728879402       -0.9130448788        0.4761709722
 C          1.8498107254       -1.7342623877        0.0249312769
 H          1.8596341224       -2.0798345050       -0.9963775335
 N          3.8955351436       -0.5097965941       -0.4042441079
 S          4.1946652699        1.1376891985       -0.4528619843
 O          4.6349809394        1.4148336635       -1.8024512896
 O          5.1339027813        1.4788783226        0.5879157596
 C          2.6337734811        1.9448480912       -0.1245172695
 C          1.5415659406        1.6419324086       -0.9130492584
 C          0.3366870030        2.2777723414       -0.6594972554
 C          0.2421233406        3.1989285922        0.3716965741
 C          1.3480553526        3.4932438595        1.1538155501
 C          2.5554301084        2.8613826501        0.9049419887
 H          3.4393934944        3.0574653918        1.4898249752
 H          1.2717200714        4.2098597234        1.9555931725
 H         -0.6981525777        3.6918747095        0.5651136120
 H         -0.5206389648        2.0385289293       -1.2691529948
 H          1.6210295679        0.9135683482       -1.7051678181
 H          3.7739918360       -0.8710388999       -1.3399888919
 H          3.6832355473        0.1847324865        2.1160649501
 H          1.8146399147       -0.4241380810        3.6365046391
 H         -0.0561640073       -1.7961593558        2.7977138862
 H         -0.9549952842       -3.2343075051        1.1747763268
 C         -0.0946582846       -3.8792441538       -0.6712820656
 C          0.5571647513       -5.1366593422       -0.1811824198
 C         -0.8702721650       -5.1605923755       -0.6360694785
 H         -1.1063930636       -5.6448205836       -1.5718386993
 H         -1.6434533953       -5.2575634033        0.1118946082
 H          1.3039471881       -5.6072666558       -0.8022195480
 H          0.7534295090       -5.2147671131        0.8774733138
 H          0.1935171367       -3.5077974331       -1.6464921765
