  62
        -98.93948519
 C         -1.3701948307       -1.7450186804       -0.2697377704
 C         -1.3015767504       -0.4315119904       -0.7897588706
 C         -2.5729847203        0.3189878098       -0.8335915208
 C         -3.6849239204       -0.2441702400       -0.3310048309
 C         -5.0523813803        0.3695373303       -0.2048852812
 C         -5.2149118704        1.0618296105        1.1596309887
 C         -4.7640664102        2.5213369304        1.2043340186
 H         -5.4660004500        3.1301901705        0.6305283084
 H         -4.8241889003        2.8464698805        2.2455381585
 C         -3.3482801601        2.7880461701        0.6869154588
 H         -2.6652048402        2.0270463500        1.0684047190
 H         -3.0233600699        3.7485595001        1.0907417087
 C         -3.2674740498        2.8352481799       -0.8454541212
 H         -4.2756198797        2.8825135600       -1.2563040814
 H         -2.7651789796        3.7526713098       -1.1580859212
 C         -2.4998414399        1.6725175297       -1.4864851510
 H         -2.8177545198        1.5676149496       -2.5296490710
 H         -1.4314911899        1.9081644695       -1.5055908308
 H         -4.6565646306        0.4808539005        1.8981462488
 H         -6.2681601005        1.0258857407        1.4456803085
 H         -5.2451918701        1.0579621202       -1.0220379913
 H         -5.7674691905       -0.4536129796       -0.2643060612
 O         -3.6920800007       -1.4936424399        0.2126815692
 C         -2.5555094709       -2.2761512601        0.2417990294
 O         -2.7205148512       -3.4068396600        0.7433589795
 H          2.1738495795       -1.1608252710       -0.5994122499
 C          1.9480831493       -1.3503646409        0.4357206000
 C          0.8279399791       -2.0828393206        0.7946827800
 C          0.5668665688       -2.2915282104        2.1472557999
 C          1.4149134088       -1.7904395905        3.1155949700
 C          2.5334700389       -1.0588384607        2.7549957001
 C          2.7949281092       -0.8351030009        1.4083216001
 N          3.9241470994       -0.1014647512        1.0174537602
 S          3.8993754098        0.9035098087       -0.3120412699
 O          3.9121836698        0.1322146186       -1.5294087998
 O          5.0507179399        1.7630007885       -0.1145234998
 C          2.4319360799        1.9144274690       -0.2135392302
 C          1.9253109402        2.4262999189       -1.3895526104
 C          0.8574249604        3.3062952991       -1.3361012806
 C          0.3103001202        3.6525525794       -0.1110874108
 C          0.8221757499        3.1211476094        1.0607867794
 C          1.8995177698        2.2512542192        1.0138763996
 H          2.3113229796        1.8338599692        1.9182789098
 H          0.3861585098        3.3815870796        2.0121968593
 H         -0.5245422297        4.3340879495       -0.0688744810
 H          0.4535653006        3.7132236391       -2.2498929107
 H          2.3687710203        2.1184893288       -2.3228354803
 H          4.4656116393        0.2951427788        1.7713207103
 H          3.2004934089       -0.6675677608        3.5083177202
 H          1.2046473186       -1.9674737403        4.1594990100
 H         -0.3143516813       -2.8536634003        2.4248546399
 C         -0.1397231109       -2.6366427106       -0.2215492901
 H         -0.4924019511       -3.6100995405        0.1467274199
 C          0.4648971893       -2.8306888908       -1.5956272300
 C          1.4089640491       -3.9708146310       -1.8254747797
 C          0.0360508192       -4.0012046908       -2.4258381400
 H         -0.0646910906       -3.8670832009       -3.4924714100
 H         -0.6926927810       -4.6759101607       -2.0000712800
 H          2.2555769793       -3.8141070112       -2.4765947596
 H          1.6115770089       -4.6258173710       -0.9913621396
 H          0.6606648496       -1.9015336709       -2.1165060101
 O         -0.2387957102        0.1006217093       -1.2040401705
