  62
        -98.94058681
 C         -1.6420629804       -1.0153353996        0.8845839092
 C         -2.8829268504       -1.2433660093        0.2389353193
 C         -3.8851154203       -0.1774538892        0.3985924697
 C         -3.5907647901        0.9317892105        1.0985257801
 C         -4.5123925999        2.0941173606        1.3513431805
 C         -4.5567282599        3.1177879910        0.2084122409
 C         -5.2992736201        2.6600422015       -1.0476667292
 H         -6.2878852801        2.2926717815       -0.7704876392
 H         -5.4442627900        3.5429225517       -1.6734781089
 C         -4.5611959603        1.5911509617       -1.8658159596
 H         -4.5893096303        1.8591165720       -2.9243657695
 H         -3.5099279902        1.5664876714       -1.5696899997
 C         -5.1433715004        0.1834548117       -1.7396133601
 H         -6.1529269105        0.1649684420       -2.1563058300
 H         -4.5243335606       -0.4985849282       -2.3277746303
 C         -5.1993665404       -0.3495330688       -0.3021316502
 H         -5.9942137503        0.1478329911        0.2533226300
 H         -5.4166598505       -1.4197743387       -0.3426177606
 H         -3.5328025899        3.3929784709       -0.0542970491
 H         -5.0534594897        4.0119239909        0.5921741612
 H         -5.5193218000        1.7264254506        1.5512126705
 H         -4.1416739598        2.5948729102        2.2484138707
 O         -2.3806377800        1.1199975702        1.6907411100
 C         -1.3851291501        0.1635694501        1.5893957896
 O         -0.3235908201        0.4695329698        2.1695983396
 H          2.1961592996       -1.5869957501        0.8911100487
 C          1.7857674195       -1.4749962797       -0.1009492112
 C          0.4280786195       -1.6531381795       -0.3170465912
 C         -0.0743494906       -1.4925828490       -1.6052928211
 C          0.7706827093       -1.1651048887       -2.6490588210
 C          2.1240005394       -0.9742733690       -2.4271039511
 C          2.6346314294       -1.1269622795       -1.1438526512
 N          4.0056610095       -0.9516574597       -0.8905191913
 S          4.5064042797        0.0074900997        0.3883852490
 O          5.9233640897        0.1905607696        0.1631286390
 O          4.1357679398       -0.6055669206        1.6369396488
 C          3.6580611399        1.5576272999        0.1488821596
 C          4.2819062400        2.5201792601       -0.6228569901
 C          3.6231862001        3.7113117803       -0.8768785896
 C          2.3499105002        3.9166974303       -0.3659894994
 C          1.7379981501        2.9402604201        0.4036062503
 C          2.3932881000        1.7469136599        0.6675754698
 H          1.9226803399        0.9859475898        1.2701321596
 H          0.7486218902        3.0854761001        0.8090019804
 H          1.8327118203        4.8421718504       -0.5650651491
 H          4.1003172401        4.4736763604       -1.4714298894
 H          5.2751599599        2.3219693901       -0.9922759202
 H          4.5519795094       -0.7424612095       -1.7142199612
 H          2.7815281193       -0.7113451188       -3.2417447711
 H          0.3714862492       -1.0487348883       -3.6452817010
 H         -1.1311720907       -1.6339533788       -1.7759868710
 C         -0.4799820505       -1.9940230998        0.8364709088
 H          0.0905242896       -1.8162085202        1.7630993188
 C         -0.9092447107       -3.4541078497        0.8501711383
 C         -0.7386948109       -4.3796626193       -0.3128894220
 C          0.1360130492       -4.5296100899        0.8930464679
 H         -0.0165103909       -5.3751015601        1.5467125676
 H          1.1675361392       -4.2204475000        0.8054754979
 H         -1.5155257210       -5.1083128992       -0.4869047322
 H         -0.2962589909       -3.9919601391       -1.2167548619
 H         -1.7912753306       -3.6114119098        1.4618886483
 O         -3.1631432306       -2.2668345190       -0.4338741011
