  62
        -98.94443501
 C         -1.5157216009       -1.4382568138        0.5327653009
 C         -1.5819391581       -0.1384704374        1.0963870230
 C         -2.7404767401        0.6767991380        0.7094985576
 C         -3.6537255370        0.1604562013       -0.1329532312
 C         -4.8625047242        0.8898822233       -0.6423322070
 C         -4.5622499378        1.6064807859       -1.9659687774
 C         -3.2892018849        2.4519988879       -1.9317835003
 H         -2.4256027756        1.7920242128       -1.8195492573
 H         -3.1964259262        2.9393288926       -2.9047679347
 C         -3.2647340607        3.5122562778       -0.8222702058
 H         -4.2774771712        3.6913862305       -0.4594867779
 H         -2.9017186465        4.4512325646       -1.2448816527
 C         -2.3527609224        3.1739380372        0.3584240977
 H         -1.3622544838        2.8979917635       -0.0110447845
 H         -2.2396876772        4.0757520080        0.9650001379
 C         -2.8429405816        2.0589813325        1.2905967511
 H         -2.1985523972        2.0592334740        2.1743319571
 H         -3.8663122938        2.2665640126        1.6100336386
 H         -4.4539373477        0.8538877706       -2.7504711782
 H         -5.4157558828        2.2388266950       -2.2175549478
 H         -5.1894157329        1.6082740479        0.1068113247
 H         -5.6587643230        0.1617294241       -0.8061988109
 O         -3.5521448112       -1.0850368200       -0.6606445979
 C         -2.4717599049       -1.9062527594       -0.3689171552
 O         -2.4981483522       -3.0010739516       -0.9619521498
 O         -0.7155292396        0.3150193444        1.8903555796
 C         -0.3126900060       -2.2994058268        0.8837868855
 C          0.6313143367       -2.2749235437       -0.2930037077
 C          0.7035799621       -3.2924549192       -1.2359209921
 C          1.5533097435       -3.1749285265       -2.3219176384
 C          2.3573714259       -2.0600937599       -2.4765830545
 C          2.2931992710       -1.0369356053       -1.5370034131
 C          1.4256818792       -1.1471185428       -0.4625048058
 H          1.3637226789       -0.3452725757        0.2585773143
 N          3.0872281064        0.1138293757       -1.6608136053
 S          3.8386012370        0.7318763136       -0.2945170059
 O          4.9715278353        1.4702316790       -0.8140313936
 O          4.1474775715       -0.3136744985        0.6532399312
 C          2.6803027427        1.8894988715        0.3985462556
 C          2.1941998773        2.8940640306       -0.4149609991
 C          1.3326062836        3.8328270624        0.1274175751
 C          0.9765892355        3.7528226585        1.4657869384
 C          1.4706989698        2.7370945605        2.2673091273
 C          2.3338377155        1.7956434110        1.7307426540
 H          2.7352898111        0.9852958294        2.3185415102
 H          1.1822819908        2.6664141798        3.3033797868
 H          0.3051171448        4.4846884860        1.8862078978
 H          0.9390651372        4.6225806352       -0.4925951650
 H          2.4984475427        2.9245340006       -1.4481906799
 H          3.7136902305        0.1099109553       -2.4530014251
 H          3.0280915729       -1.9777477198       -3.3187250162
 H          1.5972538430       -3.9678879595       -3.0533825397
 H          0.0793844191       -4.1642427545       -1.1295737093
 H          0.1827484997       -1.7790051812        1.7154200217
 C         -0.6899870839       -3.6909951073        1.3416879510
 C          0.3375575481       -4.5272355499        2.0423037986
 C         -0.8219749007       -3.9669104824        2.8082804808
 H         -1.5979222833       -4.6420406749        3.1366938704
 H         -0.6362547428       -3.1504890933        3.4908756644
 H          0.3610538409       -5.5883828166        1.8469582416
 H          1.3114847944       -4.0880177681        2.2006504628
 H         -1.3867635355       -4.1907167987        0.6808545880
