  62
        -98.93093791
 C          2.3161550491        0.4951495721        0.7117676139
 C          3.3269017159        0.8983116871       -0.1998996854
 C          4.6576496335        0.2950561763       -0.0104652417
 C          4.8551854324       -0.6011988703        0.9701725105
 C          6.1422596028       -1.3250200169        1.2358735417
 C          6.2057679688       -2.6522488126        0.4671599915
 C          5.8497422919       -2.5267992915       -1.0142306914
 H          5.9604593062       -3.5178806248       -1.4595567365
 H          4.7967820244       -2.2500680560       -1.1053032366
 C          6.7077087965       -1.5183417141       -1.7909441122
 H          7.6205011927       -1.3024580669       -1.2344826215
 H          7.0056370454       -1.9698414910       -2.7395857847
 C          5.9961074269       -0.2062892192       -2.1257808376
 H          5.0350833325       -0.4210606521       -2.5996243865
 H          6.6064016137        0.3349681116       -2.8535869672
 C          5.7501978024        0.7389441983       -0.9432645968
 H          6.6818471780        0.8928637869       -0.3951801829
 H          5.4274489011        1.7015092445       -1.3499144802
 H          7.2129360115       -3.0607356741        0.5682490820
 H          5.5065760036       -3.3533372742        0.9289001333
 H          6.9764757499       -0.6872901438        0.9496434930
 H          6.2047345058       -1.5314866387        2.3057011717
 O          3.8651851880       -0.9845707355        1.8145703529
 C          2.5949587997       -0.4523027483        1.7101901668
 O          1.8013922036       -0.9015525726        2.5639266899
 H         -1.5505683411       -0.1061339785        0.8782576348
 C         -1.2530169724        0.0826084285       -0.1437748904
 C         -0.0004886610        0.6193700635       -0.4155472806
 C          0.3510745847        0.8438599717       -1.7412915465
 C         -0.5288691483        0.5301247679       -2.7621166799
 C         -1.7838916351        0.0194062127       -2.4857311641
 C         -2.1486838066       -0.2039605004       -1.1632906089
 N         -3.4126681446       -0.7267989412       -0.8414153411
 S         -4.1729503959       -0.1369387560        0.5469185598
 O         -3.9599563504        1.2885629182        0.6580121158
 O         -3.7608556347       -0.9337323733        1.6755921265
 C         -5.8810261962       -0.4738677765        0.1602496609
 C         -6.6421303780        0.5164423770       -0.4322328294
 C         -7.9612595088        0.2436494026       -0.7581813268
 C         -8.4935583326       -1.0085608786       -0.4896934988
 C         -7.7177444068       -1.9918378890        0.1063068146
 C         -6.3979056974       -1.7257564027        0.4352682107
 H         -5.7597785003       -2.4544017045        0.9077098604
 H         -8.1361235729       -2.9628127312        0.3169042006
 H         -9.5206103759       -1.2183144021       -0.7435583860
 H         -8.5676706917        1.0071733944       -1.2180899283
 H         -6.1888437693        1.4780565094       -0.6122067241
 H         -4.0408735118       -0.7509851661       -1.6332189073
 H         -2.4745383730       -0.2076496490       -3.2838536529
 H         -0.2373480180        0.7040547732       -3.7870298404
 H          1.3158322455        1.2691047261       -1.9652426041
 C          0.8797562635        0.9995222742        0.7546215020
 H          0.4593679445        0.4804487670        1.6307088243
 C          0.6704230130        2.4849394161        1.0475166625
 C          1.6996194582        3.3181685745        1.7480916266
 C          1.3413622273        3.6082949539        0.3215919947
 H          0.7544867334        4.4903474254        0.1099223365
 H          2.0604374568        3.3582152189       -0.4401323397
 H          2.6592840786        2.8600256758        1.9419934720
 H          1.3743605138        3.9982159020        2.5215429375
 H         -0.3639874561        2.6626016338        1.3348967612
 O          3.1745510802        1.7205829763       -1.1402181588
