  62
        -98.94687427
 C          1.1589470658        1.1529163430       -0.1765784455
 C          2.0258355693        0.8417120770        0.9050953886
 C          2.8504077157       -0.3632180851        0.7589538931
 C          2.7313206841       -1.1054543847       -0.3565486166
 C          3.5582318798       -2.3173932998       -0.6731896134
 C          4.8232035024       -1.9354768879       -1.4549517263
 C          5.6116002132       -0.7840278473       -0.8307841973
 H          6.4978747658       -0.6241299293       -1.4487313351
 H          5.0140128678        0.1287892593       -0.8853283243
 C          6.0393608166       -1.0223738996        0.6242144110
 H          7.0828998697       -0.7205427685        0.7361716177
 H          5.9845616304       -2.0863193698        0.8576512487
 C          5.2345455226       -0.2336230616        1.6590103157
 H          5.2133906493        0.8224516152        1.3784450507
 H          5.7524322047       -0.3059055913        2.6191487972
 C          3.7909538770       -0.7027655049        1.8806412656
 H          3.7818237537       -1.7759143724        2.0817382863
 H          3.4059247668       -0.1836102393        2.7629774550
 H          5.4623128497       -2.8171943942       -1.5299018724
 H          4.5308406326       -1.6412536287       -2.4655572384
 H          3.8332377323       -2.8186909266        0.2529638146
 H          2.9598146524       -2.9963025899       -1.2824922621
 O          1.8655585883       -0.8009896449       -1.3526113125
 C          1.0599015745        0.3250238510       -1.2950267698
 O          0.3238549195        0.4522832390       -2.2949990334
 H         -1.5618583886        1.0615064057       -1.3956014477
 C         -1.9167338934        1.3873627747       -0.4293246505
 C         -1.0697194282        2.1098999689        0.3990551699
 C         -1.5369563396        2.4958954664        1.6497621821
 C         -2.8187230454        2.1677661638        2.0583234035
 C         -3.6564037625        1.4378828529        1.2332539109
 C         -3.1925530545        1.0414904502       -0.0136868696
 N         -4.0146388315        0.2356638543       -0.8395770115
 S         -4.1912980804       -1.3304550228       -0.2674952049
 O         -4.7321924270       -2.0980155198       -1.3657154370
 O         -4.9853350170       -1.2906700732        0.9340894875
 C         -2.5379391251       -1.8811633762        0.1195119593
 C         -1.8123628950       -2.5458991638       -0.8478798988
 C         -0.5162268816       -2.9411983929       -0.5607480033
 C          0.0350451209       -2.6497791403        0.6769289579
 C         -0.6994715848       -1.9637220516        1.6311951127
 C         -2.0008928395       -1.5783083687        1.3549778774
 H         -2.6062288512       -1.0567023428        2.0781072064
 H         -0.2595070982       -1.7244843672        2.5862386892
 H          1.0456289638       -2.9538852763        0.8996803595
 H          0.0617361189       -3.4650046552       -1.3051945207
 H         -2.2760921601       -2.7535711969       -1.7990988608
 H         -3.6701086993        0.1902404482       -1.7896715756
 H         -4.6464573307        1.1457751197        1.5437042828
 H         -3.1669061582        2.4768397179        3.0321469456
 H         -0.8807261905        3.0421774344        2.3113946068
 C          0.3387513344        2.4264825263       -0.0402587901
 H          0.8211463239        2.9920097274        0.7680588889
 C          0.3436889693        3.2812913133       -1.2925672038
 C          0.0045693336        4.7362634316       -1.1794200481
 C          1.4128341319        4.3150335800       -1.4719743709
 H          1.8079722742        4.4803862205       -2.4630902978
 H          2.1484979415        4.4159613024       -0.6872955789
 H         -0.2141775769        5.1237514369       -0.1959442945
 H         -0.5707512502        5.1937563945       -1.9695279775
 H          0.0116106540        2.7546856635       -2.1776429935
 O          2.1113832703        1.5500599206        1.9428419256
