  62
        -98.94569814
 C         -1.9924552376       -1.1752040563       -0.4739678119
 C         -1.5173249690        0.0167773430       -1.0723290645
 C         -2.3584138954        1.2077325247       -0.8904556726
 C         -3.5028367020        1.1267427933       -0.1897218054
 C         -4.4944257134        2.2373295762        0.0304173263
 C         -4.1511756962        3.1729143486        1.1968546049
 C         -2.9787017603        4.1208712630        0.9435422893
 H         -3.1367321521        4.6517316865        0.0041497431
 H         -2.9866731300        4.8636637635        1.7437117896
 C         -1.6070146659        3.4331574192        0.9243119219
 H         -0.8961479211        4.0088468643        1.5219836520
 H         -1.6764877444        2.4485495274        1.3932223567
 C         -0.9887943942        3.2640554833       -0.4629655573
 H         -0.7508464049        4.2443401302       -0.8831396034
 H         -0.0543509504        2.7126287685       -0.3322372527
 C         -1.8692635776        2.5039806475       -1.4632426040
 H         -1.2663238821        2.2726638739       -2.3448143848
 H         -2.7109339078        3.1259393226       -1.7688094343
 H         -5.0396703054        3.7736322501        1.4053092328
 H         -3.9428745296        2.5674919351        2.0821344553
 H         -4.5961925277        2.8207235758       -0.8853647548
 H         -5.4517810852        1.7573045859        0.2452900560
 O         -3.9198071503       -0.0318803569        0.3870662932
 C         -3.1734408459       -1.1917761988        0.2748155544
 O         -3.6706885401       -2.1730741005        0.8653316829
 O         -0.4613015914        0.1063381746       -1.7522718202
 C         -1.2700275411       -2.5118760158       -0.5605231946
 C         -0.2064092030       -2.6153471473        0.5073504710
 C         -0.2651997998       -3.6211276562        1.4646138147
 C          0.6970628308       -3.7055587398        2.4548611329
 C          1.7183364486       -2.7762709975        2.5193997754
 C          1.7852181982       -1.7624989040        1.5683694566
 C          0.8399933276       -1.7041715377        0.5551634216
 H          0.8955358769       -0.9190935088       -0.1793290460
 N          2.8141314075       -0.8122211259        1.6212871126
 S          2.5411836127        0.8199389538        1.3188259183
 O          3.3333082013        1.5095651866        2.3195045420
 O          1.1336161888        1.1257103148        1.3014200961
 C          3.3112175875        1.0804751492       -0.2663205572
 C          2.5674272360        1.0986070119       -1.4278462166
 C          3.2223640696        1.2887959659       -2.6360944131
 C          4.5975958704        1.4547936044       -2.6643086670
 C          5.3309834447        1.4343214194       -1.4871114957
 C          4.6840575109        1.2455177151       -0.2777570685
 H          5.2118851891        1.2381894209        0.6615210341
 H          6.4009174387        1.5652063056       -1.5094409609
 H          5.0992218720        1.6020788084       -3.6078645375
 H          2.6462909520        1.3023916341       -3.5476950655
 H          1.4974908117        0.9613199793       -1.3914369268
 H          3.4363104755       -0.9230664422        2.4087395378
 H          2.4588229496       -2.8279052864        3.3036773869
 H          0.6425550036       -4.4920037097        3.1924923536
 H         -1.0822821012       -4.3273899228        1.4394383345
 H         -2.0328850997       -3.2716456912       -0.3403239271
 C         -0.6902547054       -2.8045739108       -1.9306006688
 C         -0.4479540172       -4.2295382923       -2.3239340088
 C         -1.5548843529       -3.4513005264       -2.9685360687
 H         -1.4423357144       -3.1428983229       -3.9969044032
 H         -2.5728307100       -3.6881489759       -2.6937767079
 H          0.4283060633       -4.4589598494       -2.9103151226
 H         -0.7163446143       -4.9979221318       -1.6146522730
 H          0.0182336066       -2.0604210518       -2.2676597650
