  62
        -98.94462542
 C         -2.6476734561       -1.2837437788        0.1106587285
 C         -2.5948468626       -0.2996894233       -0.9064389042
 C         -3.5213674479        0.8297295343       -0.7505107761
 C         -4.3651189601        0.8715858094        0.2959165903
 C         -5.3829129096        1.9438819735        0.5747762085
 C         -4.8154867086        3.1687160801        1.3050991165
 C         -3.9217691575        4.0750990164        0.4575559571
 H         -4.4414229484        4.3381171117       -0.4643036546
 H         -3.7722550364        4.9974345957        1.0221684544
 C         -2.5484697924        3.4758704300        0.1224068250
 H         -2.3374883152        2.6406842815        0.7949104005
 H         -1.7693386507        4.2222945335        0.2940327352
 C         -2.4001939576        2.9951318018       -1.3212338739
 H         -2.4690444235        3.8481817270       -2.0003498066
 H         -1.4034960945        2.5580661061       -1.4323542056
 C         -3.4357667673        1.9459230012       -1.7472720616
 H         -4.4107305397        2.4139993912       -1.8811243345
 H         -3.1174518421        1.5182299497       -2.7011729413
 H         -4.2595385697        2.8270157711        2.1811697579
 H         -5.6637995510        3.7592783911        1.6584115316
 H         -5.8484146420        2.2591484082       -0.3593504894
 H         -6.1467558206        1.4888994532        1.2088953478
 O         -4.4008255181       -0.1043873851        1.2409449715
 C         -3.5308654385       -1.1793216033        1.1896939902
 O         -3.6461223639       -1.9739550381        2.1438824006
 H          0.2333507329       -1.4915022365       -1.5136307522
 C          0.5372365932       -1.5110533027       -0.4788882384
 C         -0.3311269260       -2.0061678206        0.4821335958
 C          0.0664736400       -1.9794249387        1.8155536180
 C          1.3029149985       -1.4737827790        2.1727371640
 C          2.1640461632       -0.9744406448        1.2109305950
 C          1.7686819038       -0.9804337006       -0.1195371742
 N          2.6263469807       -0.4551452579       -1.1030476352
 S          3.2642859722        1.0763841013       -0.8374022803
 O          2.4118321519        1.8719503177        0.0158110287
 O          3.5384127012        1.6096770857       -2.1541645928
 C          4.8120690420        0.7448909703       -0.0197731083
 C          5.7070126110       -0.1029709455       -0.6427196485
 C          6.9187242847       -0.3682467629       -0.0252811643
 C          7.2152591235        0.2178483116        1.1963827535
 C          6.3080736307        1.0699594531        1.8071043187
 C          5.0934793595        1.3385826789        1.1949293391
 H          4.3552297447        1.9902914541        1.6348902528
 H          6.5401731307        1.5252169627        2.7565371697
 H          8.1589625422        0.0095960960        1.6753330936
 H          7.6267070767       -1.0301961953       -0.4973358959
 H          5.4393313033       -0.5342692234       -1.5927346830
 H          2.2399648668       -0.5145928856       -2.0349173636
 H          3.1241518460       -0.5673943606        1.4833871795
 H          1.5986290859       -1.4636027683        3.2108761513
 H         -0.6156746915       -2.3436473540        2.5710710132
 C         -1.7162419424       -2.4876701021        0.1231560630
 H         -2.0719805243       -3.1307830117        0.9386805715
 C         -1.7679396249       -3.2749928121       -1.1698442086
 C         -1.2070028966       -4.6639747532       -1.1987418923
 C         -2.6887053012       -4.4521979395       -1.2707231026
 H         -3.1923555302       -4.6321955675       -2.2086929281
 H         -3.2835198240       -4.6974281325       -0.4028508041
 H         -0.7953644382       -5.0534350911       -0.2799812630
 H         -0.6907923640       -4.9932750670       -2.0873993319
 H         -1.6541790334       -2.6641035793       -2.0557419423
 O         -1.8304572163       -0.3465363156       -1.9068699284
