  62
        -98.93592400
 C         -2.1894680909       -1.4413013529        0.1890886688
 C         -1.8393184458       -0.3656223628       -0.6624365496
 C         -2.8991387624        0.6334485782       -0.8928792317
 C         -4.1256301178        0.4392391867       -0.3782195893
 C         -5.2919741303        1.3688402070       -0.5465056569
 C         -5.3781962211        2.3793211467        0.6050658326
 C         -4.0554050553        3.0837461920        0.9045285052
 H         -4.2437520024        3.8026779287        1.7047229825
 H         -3.3426974481        2.3515540259        1.2911134765
 C         -3.4356564598        3.8080185622       -0.2985567326
 H         -3.0869047246        4.7900248226        0.0278029434
 H         -4.1944188511        3.9728619160       -1.0642674317
 C         -2.2332920551        3.0919807438       -0.9171339018
 H         -1.5316237759        2.8209450902       -0.1241571927
 H         -1.7294184843        3.7948324053       -1.5864542917
 C         -2.5462108863        1.8299160794       -1.7315638690
 H         -3.3354451930        2.0434541765       -2.4552805438
 H         -1.6429615838        1.5531092083       -2.2832747224
 H         -5.6979275089        1.8515492019        1.5065739645
 H         -6.1407641656        3.1201030497        0.3573865009
 H         -6.2047438345        0.7704396795       -0.5612575324
 H         -5.1984689495        1.8914929408       -1.4965258197
 O         -4.4382166843       -0.6329401803        0.3933361407
 C         -3.4798565879       -1.5746114963        0.7144579937
 O         -3.8896316436       -2.4849354662        1.4632860682
 O         -0.7202855917       -0.2228265735       -1.2186324020
 C         -1.2378656928       -2.5742674753        0.5671626939
 C          0.1511300569       -2.0781161178        0.8736879464
 C          0.4395533233       -1.7286601538        2.1919817422
 C          1.6816924611       -1.2381311635        2.5496872861
 C          2.6761285501       -1.0804941657        1.6004859137
 C          2.3981727718       -1.4122522899        0.2822191054
 C          1.1492761067       -1.9073971941       -0.0723159456
 H          0.9638821136       -2.1158355883       -1.1111077368
 N          3.3812531715       -1.2570706268       -0.7068298159
 S          4.4737649432       -0.0037214190       -0.6123401473
 O          4.9235484221        0.2031472077       -1.9719445372
 O          5.5068978053       -0.3350202250        0.3395742677
 C          3.5894030321        1.4395030226       -0.0433630886
 C          2.3401076872        1.7262965246       -0.5562003131
 C          1.7011793761        2.8842959154       -0.1422305853
 C          2.3116582763        3.7296180828        0.7707623030
 C          3.5644949460        3.4245383524        1.2795999379
 C          4.2110894309        2.2706570469        0.8677689410
 H          5.1844820347        1.9922910496        1.2384815677
 H          4.0385239328        4.0801631606        1.9922479683
 H          1.8060690850        4.6284136794        1.0870130465
 H          0.7247983983        3.1138808218       -0.5373214810
 H          1.8591931830        1.0544881746       -1.2495286333
 H          3.0441108507       -1.3857442782       -1.6491881618
 H          3.6548671168       -0.7124573352        1.8628070979
 H          1.8794467508       -0.9762266950        3.5779040908
 H         -0.3307826095       -1.8406559264        2.9424890125
 H         -1.6426163690       -2.9591635881        1.5162497730
 C         -1.4102909035       -3.7261726161       -0.4206905065
 C         -1.0345179020       -3.6747279501       -1.8702048865
 C         -0.3020112342       -4.5917356810       -0.9358471302
 H         -0.4874625960       -5.6522875184       -1.0196990150
 H          0.7101815597       -4.3467389156       -0.6553714141
 H         -1.7210000897       -4.1116975156       -2.5817810699
 H         -0.5490534685       -2.7881055195       -2.2454557308
 H         -2.3501702647       -4.2310067000       -0.2123976249
