  62
        -98.94665196
 C         -1.1486710649       -1.3503336893        0.2960774402
 C         -1.3666800777       -0.3498285129       -0.6820364069
 C         -2.3467801676        0.6855059284       -0.3291404020
 C         -2.9178815564        0.6891380790        0.8878630209
 C         -3.9240886628        1.6864604650        1.3945153344
 C         -5.3696569287        1.3682060290        0.9876786005
 C         -5.6991824550        1.6173370764       -0.4848652506
 H         -6.7854643955        1.5661631867       -0.5824757720
 H         -5.3962589616        2.6285105101       -0.7583905737
 C         -5.0697093970        0.6085193881       -1.4558875506
 H         -4.7512573380       -0.2789024777       -0.9040647655
 H         -5.8212572667        0.2818873637       -2.1782985376
 C         -3.8817534820        1.1492997300       -2.2521903506
 H         -3.4944248321        0.3414490413       -2.8782481129
 H         -4.2182849444        1.9528813535       -2.9110816140
 C         -2.7284382654        1.6756149796       -1.3874593067
 H         -1.8580916828        1.8276464693       -2.0299839713
 H         -3.0038804055        2.6283208326       -0.9370064284
 H         -5.5831155672        0.3264431675        1.2378937085
 H         -6.0255187239        1.9960955442        1.5952153751
 H         -3.8619844738        1.6669934669        2.4847503005
 H         -3.6648953278        2.6865661162        1.0459188846
 O         -2.6163948414       -0.2379101437        1.8338887312
 C         -1.7632810723       -1.2890203003        1.5520698144
 O         -1.6266961954       -2.0982302205        2.4911731897
 O         -0.7938802382       -0.2999653184       -1.8036514824
 C         -0.2523582310       -2.5608822279        0.0750956768
 C          1.2020247708       -2.2015929870        0.2543365436
 C          1.9550546878       -2.7481944741        1.2866005788
 C          3.2812551495       -2.3896911192        1.4609870544
 C          3.8801984711       -1.4711505760        0.6166290152
 C          3.1305883962       -0.9141827645       -0.4105755526
 C          1.8087897198       -1.2876644991       -0.5954950502
 H          1.2298266045       -0.8399332719       -1.3897285540
 N          3.7132087108        0.0764159070       -1.2388911218
 S          3.9206106583        1.5525394580       -0.4737918414
 O          4.2886566728        2.4909971452       -1.5088251990
 O          4.8671371820        1.3809872015        0.5987196921
 C          2.3205997593        1.9772174968        0.1950503060
 C          1.5146959751        2.8548396149       -0.5012659401
 C          0.2650658559        3.1664360888        0.0080400399
 C         -0.1630707330        2.5817461437        1.1893931683
 C          0.6492851345        1.6862012241        1.8666799908
 C          1.9065157040        1.3825607913        1.3705762863
 H          2.5684913286        0.7038439839        1.8835195046
 H          0.3047783559        1.2183718349        2.7760493013
 H         -1.1346342058        2.8236660786        1.5895422545
 H         -0.3720296248        3.8593364376       -0.5173430265
 H          1.8862804768        3.2869560595       -1.4166594225
 H          3.1801499737        0.2289645692       -2.0851654126
 H          4.9016756301       -1.1562595644        0.7548005907
 H          3.8529921796       -2.8248126437        2.2666312409
 H          1.4888222702       -3.4465762681        1.9664103268
 H         -0.5201844929       -3.2743824185        0.8655654930
 C         -0.4880227431       -3.2249129037       -1.2683328199
 C         -0.0926471918       -4.6581342789       -1.4495294425
 C         -1.5422510551       -4.2818300929       -1.3884950451
 H         -2.1275373249       -4.3254679757       -2.2947758014
 H         -2.0985156141       -4.5374637888       -0.4980806828
 H          0.3205379286       -4.9626450714       -2.3988215083
 H          0.3332004748       -5.1711551662       -0.6004711104
 H         -0.3586771386       -2.5564928356       -2.1091226207
