  62
        -98.94151073
 C         -2.5692808113       -0.0732765768        0.1013039471
 C         -2.5445576875        1.0752619464        0.9305799606
 C         -2.1337582070        2.3293795678        0.2931168090
 C         -1.7931407572        2.3325100107       -1.0080739760
 C         -1.3239735412        3.5230553313       -1.7987041369
 C          0.1766035136        3.8024822656       -1.6351820284
 C          0.5760934014        4.4327921886       -0.3001511790
 H          1.5962144380        4.8047910123       -0.4140599979
 H         -0.0650513393        5.2910480595       -0.0941213908
 C          0.5408732520        3.4626641613        0.8891257715
 H          0.5556106219        2.4328256549        0.5222462799
 H          1.4454428379        3.5879925832        1.4901982469
 C         -0.6502967043        3.6460602706        1.8304014646
 H         -0.5760609471        4.6154868306        2.3295981491
 H         -0.5974752949        2.8669547345        2.5958840037
 C         -2.0229401300        3.5531390965        1.1519419729
 H         -2.7842547437        3.4805328545        1.9330792155
 H         -2.2111247172        4.4492758271        0.5607301657
 H          0.7202074395        2.8629760209       -1.7644038056
 H          0.4741440952        4.4800719722       -2.4390091138
 H         -1.5220734466        3.2974914973       -2.8487007255
 H         -1.8971899210        4.4067002319       -1.5162250532
 O         -1.8480411551        1.2160940583       -1.7780734041
 C         -2.1810346050       -0.0181726015       -1.2393127760
 O         -2.1099027659       -0.9566427130       -2.0553096491
 O         -2.8424930859        1.0489617501        2.1569411043
 C         -2.8450488394       -1.4123926622        0.7628121967
 C         -1.7261581386       -2.3690827097        0.4269527740
 C         -1.9100357535       -3.6925841499        0.0540725946
 C         -0.8173429661       -4.4936729215       -0.2376823686
 C          0.4688016232       -3.9916471800       -0.1917191855
 C          0.6623460195       -2.6608228266        0.1696429655
 C         -0.4266010837       -1.8815410407        0.5118368543
 H         -0.2639513750       -0.8587705168        0.8223382908
 N          1.9482580959       -2.0934530426        0.1426881312
 S          2.1969377467       -0.4635976569        0.4358362428
 O          1.9696219517       -0.1410253809        1.8298285273
 O          1.4553763773        0.3013754803       -0.5340156118
 C          3.9410326950       -0.3702347954        0.0805476948
 C          4.3426613982       -0.3295761975       -1.2411326907
 C          5.6975286547       -0.2941434696       -1.5297577519
 C          6.6239080367       -0.3009704167       -0.4972629723
 C          6.2063429715       -0.3385968503        0.8244096558
 C          4.8522648683       -0.3747638397        1.1191832007
 H          4.4797881228       -0.3964230073        2.1306872337
 H          6.9284245389       -0.3400357271        1.6249198372
 H          7.6777878347       -0.2739227805       -0.7248127853
 H          6.0251189284       -0.2615359083       -2.5563488693
 H          3.5853191609       -0.3185813113       -2.0081146174
 H          2.6926813082       -2.6907322277        0.4685313809
 H          1.3155312785       -4.6099468456       -0.4450163440
 H         -0.9744313420       -5.5232315265       -0.5218471787
 H         -2.9061420687       -4.0961794212       -0.0247406259
 H         -2.7804652391       -1.1930713687        1.8435546967
 C         -4.2349158378       -1.9829272717        0.5244238145
 C         -5.3606859937       -1.1129487797        0.0530125518
 C         -4.7994384894       -2.1667437075       -0.8512820874
 H         -5.3983519316       -3.0445874420       -1.0453567570
 H         -4.1860004372       -1.8576348077       -1.6824488125
 H         -6.3400502300       -1.2651583858        0.4815958543
 H         -5.1342936686       -0.0793619644       -0.1669687008
 H         -4.4954305201       -2.7377132638        1.2602761736
