  62
        -98.94116747
 C         -1.0495403612       -0.9172973212        0.7650467878
 C         -1.8367771782       -0.7984443300       -0.4035161319
 C         -2.4906158474        0.5034502950       -0.6195245816
 C         -2.2488518822        1.5137963595        0.2315912211
 C         -2.7446547908        2.9369680093        0.1624081661
 C         -4.2185720486        3.1571785388       -0.2062596880
 C         -5.1796654774        2.0591514804        0.2724388870
 H         -4.6724935136        1.4006376138        0.9794113340
 H         -6.0143927184        2.5246088996        0.7996415620
 C         -5.7553982948        1.2272697552       -0.8760502509
 H         -6.0292838058        1.8995596754       -1.6919965198
 H         -6.6709273349        0.7400847888       -0.5322107747
 C         -4.8368658436        0.1325396722       -1.4180367947
 H         -4.7401307122       -0.6687671112       -0.6804694877
 H         -5.3132042636       -0.3001363049       -2.3010794535
 C         -3.4174011535        0.5861538424       -1.7975583789
 H         -3.0226632604       -0.1156655881       -2.5377039302
 H         -3.4219236461        1.5808158180       -2.2375641476
 H         -4.3104705781        3.2629840487       -1.2863854147
 H         -4.5126128760        4.1139999712        0.2286910704
 H         -2.5497123927        3.3558909669        1.1528583393
 H         -2.1111416093        3.4776432123       -0.5479414607
 O         -1.4355553533        1.3725690435        1.3166700823
 C         -0.8220983850        0.1658691961        1.6105710696
 O         -0.1082484691        0.1878040362        2.6339589654
 H          1.4340073591       -0.4257775376        0.1839734171
 C          1.5163485822       -1.3379335285       -0.3887160962
 C          0.7011389827       -2.4150852142       -0.0627856082
 C          0.8291316188       -3.5895795832       -0.7905500743
 C          1.7258453262       -3.6601262515       -1.8438276020
 C          2.4932022540       -2.5668158213       -2.2009042466
 C          2.3838898178       -1.3912017861       -1.4650986467
 N          3.1502918054       -0.2602372842       -1.7793452747
 S          2.5627918011        1.2734801470       -1.4627676862
 O          1.1336652386        1.3677966374       -1.6548288034
 O          3.3677924613        2.1369962627       -2.3035010889
 C          2.9989192954        1.5675179199        0.2369244959
 C          4.2566051157        1.1948020430        0.6692981289
 C          4.6109231833        1.4423694293        1.9852794167
 C          3.7091115431        2.0579863661        2.8404700817
 C          2.4535990121        2.4326895036        2.3891969363
 C          2.0939794800        2.1879599138        1.0736829056
 H          1.1183022693        2.4470028412        0.6914672433
 H          1.7444118836        2.8985854863        3.0541083131
 H          3.9830113774        2.2449933921        3.8668278085
 H          5.5861079506        1.1518501646        2.3418856741
 H          4.9281748356        0.7162852303       -0.0238291183
 H          3.6626665098       -0.3084105468       -2.6475667472
 H          3.1670511039       -2.6162091391       -3.0424773563
 H          1.8125093389       -4.5756027096       -2.4092871439
 H          0.2169969051       -4.4422879586       -0.5471253321
 C         -0.2963132140       -2.2058935911        1.0516709885
 H          0.2610797116       -2.0313909764        1.9835615118
 C         -1.2459549258       -3.3657864007        1.2545651379
 C         -0.8297832368       -4.5384915431        2.0894397006
 C         -1.8544000519       -3.5757369917        2.6075155849
 H         -2.8836476278       -3.8965531169        2.6656729031
 H         -1.5655787629       -2.8921284881        3.3927681698
 H         -1.1578590010       -5.5237272596        1.7946274364
 H          0.1555427154       -4.5137675317        2.5295093822
 H         -1.8738284148       -3.5468457110        0.3901321633
 O         -1.9888268471       -1.7318535830       -1.2348774956
