  62
        -98.93051609
 C          1.2488458830        1.5509857509        0.2289060845
 C          2.1830813923        0.9994263416        1.1358272446
 C          3.2010517301        0.0813556326        0.5886162590
 C          3.1517225189       -0.2256448324       -0.7212566364
 C          4.0652763475       -1.1277965565       -1.5113830002
 C          3.8474677452       -2.6234086372       -1.2386069482
 C          3.7199375796       -2.9949881879        0.2358310408
 H          3.4798448231       -4.0600929402        0.2917903655
 H          2.8843185232       -2.4493940409        0.6778799939
 C          4.9717800700       -2.7497600365        1.0742986919
 H          5.8150397908       -3.2819237861        0.6290273222
 H          4.7913065333       -3.1831990682        2.0614483485
 C          5.3614074192       -1.2818029474        1.2679131415
 H          5.8848083294       -0.8911894652        0.3991686163
 H          6.0695148386       -1.2395095009        2.1004841248
 C          4.1988536294       -0.3633042114        1.6313787595
 H          4.6052797624        0.5635442213        2.0537746333
 H          3.6205153469       -0.8158213755        2.4454043750
 H          4.6787435152       -3.1754523802       -1.6807300051
 H          2.9322307232       -2.9362756570       -1.7468234593
 H          5.1010207430       -0.8551501839       -1.3288200625
 H          3.8548273224       -0.9331326143       -2.5653024033
 O          2.1894019903        0.2771381828       -1.5440457309
 C          1.2358406359        1.1875956536       -1.1183788820
 O          0.4672213270        1.5704982000       -2.0149073153
 O          2.1809943820        1.2689958893        2.3693974533
 C          0.2528117267        2.5670322607        0.7761575754
 C         -1.1473581212        2.1474744962        0.4099362852
 C         -1.8986937606        2.6105753031       -0.6629231246
 C         -3.1567288558        2.0920778008       -0.9220973231
 C         -3.6926122261        1.0883224385       -0.1383393516
 C         -2.9432255954        0.5978528487        0.9222905604
 C         -1.6946173028        1.1325262994        1.1917496969
 H         -1.1159181102        0.7389052404        2.0185284055
 N         -3.4515814900       -0.4773568706        1.6851357485
 S         -3.7464207957       -1.8648457329        0.7854365383
 O         -5.0183063653       -1.7370054456        0.1211112287
 O         -3.6262695825       -2.9651285055        1.7157259773
 C         -2.4260047192       -1.8930885117       -0.4132375994
 C         -2.6767138857       -1.5560300149       -1.7273802661
 C         -1.6156794367       -1.4883710406       -2.6156316521
 C         -0.3286060425       -1.7529540629       -2.1764746217
 C         -0.0944328441       -2.0945366163       -0.8539535210
 C         -1.1497167718       -2.1606523734        0.0394733732
 H         -0.9991207750       -2.4232703908        1.0750116389
 H          0.9087943265       -2.2941857325       -0.5128524218
 H          0.4995487407       -1.6779695736       -2.8634288414
 H         -1.7911201023       -1.2162578916       -3.6437073612
 H         -3.6913194058       -1.3533574939       -2.0288509802
 H         -2.8707308222       -0.7055736092        2.4800516161
 H         -4.6620228342        0.6619093871       -0.3392353744
 H         -3.7220054666        2.4713146071       -1.7597012362
 H         -1.5029257463        3.3536032277       -1.3301998859
 H          0.3347627668        2.4534212729        1.8690784882
 C          0.7396311393        3.9821368134        0.4930603283
 C          0.7442179576        4.6482013681       -0.8484984832
 C         -0.1528692434        5.1585873741        0.2401927301
 H          0.1046505490        6.0969646174        0.7089134229
 H         -1.2143003309        4.9863696660        0.1641198578
 H          1.6128275227        5.2366702708       -1.1091198106
 H          0.3294382968        4.1130805323       -1.6868792576
 H          1.6184649920        4.1808164689        1.1026543204
