  62
        -98.93649251
 C         -1.8084512029       -0.6959278102       -0.1548855457
 C         -2.9260102981       -0.8973961064        0.6914907727
 C         -4.1890539633       -0.2454330946        0.3009500671
 C         -4.2184568213        0.4951630105       -0.8214346973
 C         -5.3707228419        1.2631509832       -1.4180393686
 C         -6.7330841151        0.5531628721       -1.4449139212
 C         -7.7484278097        1.1481356518       -0.4676591803
 H         -7.6427773339        2.2350353158       -0.4756310109
 H         -8.7544178123        0.9165362171       -0.8247727111
 C         -7.6407376156        0.6410855599        0.9694239893
 H         -7.9911098733       -0.3923721002        1.0150185999
 H         -8.3177732998        1.2405479800        1.5826110858
 C         -6.2400861525        0.7029832441        1.5821246643
 H         -6.3517734406        0.7153190530        2.6684436871
 H         -5.7418698761        1.6311903442        1.3042067650
 C         -5.3551035059       -0.4983637700        1.2173118907
 H         -4.9068797020       -0.9127272023        2.1256198668
 H         -5.9691883090       -1.2983643485        0.7938285128
 H         -7.1392895091        0.6515525987       -2.4529447079
 H         -6.6010217100       -0.5105472619       -1.2533627493
 H         -5.4599987396        2.2167841812       -0.8915805739
 H         -5.0555231784        1.4999631926       -2.4368549201
 O         -3.1144564945        0.6726181681       -1.6006789407
 C         -1.8914929316        0.0982913647       -1.2973244311
 O         -0.9931532855        0.3653290245       -2.1187839169
 O         -2.8718669182       -1.5978402722        1.7376694846
 C         -0.4938515528       -1.3476149417        0.2418309784
 C          0.4524476086       -0.2813882177        0.7350592924
 C          0.4543198210        0.0737357401        2.0803695237
 C          1.2993853078        1.0628231819        2.5504318572
 C          2.1560326271        1.7235465758        1.6871149943
 C          2.1523493777        1.3831504603        0.3412919646
 C          1.3158239991        0.3793856133       -0.1262659724
 H          1.3113163472        0.1364378169       -1.1771759290
 N          3.0255113249        2.0527501203       -0.5451088287
 S          4.6584369259        1.7882677890       -0.2804923006
 O          5.0446252513        2.4359181135        0.9472114401
 O          5.3310907616        2.2341652214       -1.4793656650
 C          4.7954597813        0.0185721845       -0.1099111905
 C          4.9577143642       -0.7444318367       -1.2489198706
 C          4.9818640263       -2.1247105135       -1.1331431161
 C          4.8285492657       -2.7151606482        0.1119452856
 C          4.6619576202       -1.9346592761        1.2453309256
 C          4.6445952027       -0.5533721417        1.1373524894
 H          4.5230626900        0.0874762251        1.9949941116
 H          4.5427374153       -2.3963487915        2.2123077620
 H          4.8391114322       -3.7902198749        0.1991048874
 H          5.1154385121       -2.7342762851       -2.0126433931
 H          5.0750727126       -0.2451400752       -2.1975677204
 H          2.8061494397        1.8717243488       -1.5148696001
 H          2.8300264138        2.4904071912        2.0336956149
 H          1.2908323392        1.3240459511        3.5978221125
 H         -0.2237159278       -0.4310128177        2.7539509269
 H         -0.7415911630       -1.9972537846        1.0915464923
 C          0.0990453346       -2.1960546245       -0.8648534902
 C          1.2568387495       -3.0932231615       -0.5468093444
 C         -0.0905028587       -3.6817079771       -0.8357922770
 H         -0.2388527688       -4.1990048466       -1.7718331506
 H         -0.6543572512       -4.0979889902       -0.0140302069
 H          2.0388193090       -3.2056680821       -1.2816332504
 H          1.6096084154       -3.1034977617        0.4732076423
 H          0.0828135405       -1.7153746907       -1.8348861926
