  62
        -98.93817730
 C         -1.6564426878       -1.4523679770        0.2846820976
 C         -1.8021341149       -0.2075821231        0.9479010271
 C         -3.0762694777        0.5108921123        0.7693180359
 C         -4.0386695675       -0.0438819521        0.0090989186
 C         -5.4564371602        0.3937504706       -0.2965246118
 C         -5.9461245230        1.7825927604        0.1025133952
 C         -5.3352675655        2.9251031631       -0.7094696130
 H         -5.7551712433        2.8933682895       -1.7180015295
 H         -5.6352302148        3.8714799914       -0.2545952185
 C         -3.8153869159        2.8942044167       -0.8449082713
 H         -3.5201037740        3.7248999952       -1.4914409322
 H         -3.5102836379        1.9730321394       -1.3452474083
 C         -3.0391644265        3.0280055175        0.4627743526
 H         -3.3401361211        3.9426050380        0.9777850466
 H         -1.9816650866        3.1208861207        0.2025865808
 C         -3.1786181726        1.8506518435        1.4414000179
 H         -2.3481119874        1.8980254350        2.1524987562
 H         -4.0990761850        1.9255582073        2.0156634236
 H         -5.7962766457        1.9404331515        1.1666096426
 H         -7.0258792165        1.7955963118       -0.0688965589
 H         -6.0995444690       -0.3523507335        0.1832601309
 H         -5.5884047011        0.2618475168       -1.3752617083
 O         -3.8482206438       -1.2373290321       -0.6225262583
 C         -2.6657804258       -1.9551562718       -0.5345675352
 O         -2.6677010115       -2.9914649712       -1.2272944383
 O         -0.9015082656        0.2811091834        1.6817024875
 C         -0.3451293422       -2.1855212660        0.5025472030
 C          0.6683088092       -1.8476667522       -0.5651308407
 C          0.3823540092       -2.0100105438       -1.9164542301
 C          1.3325729708       -1.6988252890       -2.8715984515
 C          2.5752522216       -1.2142574867       -2.5017150341
 C          2.8739718284       -1.0558972038       -1.1532320982
 C          1.9207173532       -1.3798001698       -0.1969820140
 H          2.1693585322       -1.2647818791        0.8463540209
 N          4.1374238037       -0.5997981482       -0.7533727266
 S          4.3492555757        0.4181298701        0.5552674413
 O          5.7235816675        0.8534323525        0.4395986651
 O          4.0002603990       -0.2651036774        1.7744775813
 C          3.2615157424        1.8003211166        0.2642658414
 C          3.7189162554        2.8174344036       -0.5528842595
 C          2.8854854668        3.8890860516       -0.8251705150
 C          1.6093076497        3.9260339679       -0.2820464517
 C          1.1678143654        2.8993291042        0.5363819875
 C          1.9965137937        1.8236186056        0.8135888085
 H          1.6551433797        1.0209071824        1.4462545720
 H          0.1789835940        2.9093503698        0.9669551363
 H          0.9580150079        4.7596544183       -0.4935740783
 H          3.2303840430        4.6910333698       -1.4578869252
 H          4.7226314970        2.7583530506       -0.9417740220
 H          4.7564945121       -0.3532000419       -1.5114238410
 H          3.3128183565       -0.9688921197       -3.2505106821
 H          1.1012977326       -1.8298549616       -3.9179840783
 H         -0.5874446634       -2.3842963002       -2.2075975331
 H          0.0458308224       -1.8041941470        1.4564859331
 C         -0.4910511021       -3.6902639405        0.6200822397
 C          0.5793856819       -4.4678928560        1.3227152632
 C         -0.7672362236       -4.3007405955        1.9595319336
 H         -1.4265979794       -5.1541460758        2.0095863719
 H         -0.8508805646       -3.6349275693        2.8064157646
 H          0.8482477943       -5.4386386345        0.9354606108
 H          1.4099279481       -3.9163347065        1.7381337656
 H         -0.9624297081       -4.1457271762       -0.2407879301
