  62
        -98.93832708
 C          2.3457859701        1.1576629497        0.1982769585
 C          2.3667627297       -0.1107734405       -0.4262162510
 C          3.3798142998       -1.0652050504        0.0646662190
 C          4.1945371302       -0.6998845201        1.0693047286
 C          5.3156728003       -1.4936324900        1.6813077686
 C          6.6540786501       -1.1634015004        0.9988028180
 C          6.9691829796       -1.9998925609       -0.2405353518
 H          7.8704935295       -1.5817759312       -0.6945045123
 H          7.2005598196       -3.0222078008        0.0657082886
 C          5.8623409792       -2.0448208313       -1.2969883414
 H          5.4410743493       -1.0468914113       -1.4312662817
 H          6.3165500789       -2.3346644417       -2.2464915814
 C          4.7438247192       -3.0412103810       -0.9570493606
 H          4.5741227489       -3.7009477113       -1.8106691603
 H          5.0700332194       -3.6784803607       -0.1354247105
 C          3.3876148594       -2.4088355507       -0.6126119204
 H          2.8100621495       -3.1100147204       -0.0000200799
 H          2.8125512691       -2.2588417510       -1.5320945103
 H          6.6421860401       -0.1030034005        0.7343699376
 H          7.4603001303       -1.3111741602        1.7200158778
 H          5.1032730102       -2.5577095200        1.6392779891
 H          5.3748484507       -1.1882058196        2.7280606584
 O          4.1282155205        0.5276625401        1.6546196581
 C          3.2115507605        1.4757970601        1.2471052381
 O          3.2628188108        2.5480248903        1.8817105276
 O          1.5905126794       -0.4424138908       -1.3620625606
 C          1.3386739201        2.2240090897       -0.2044619316
 C         -0.0337733299        1.7468454500        0.2034747791
 C         -0.4232382594        1.8709438206        1.5345571691
 C         -1.6461940093        1.3878912309        1.9590360298
 C         -2.5034182097        0.7636717006        1.0686242603
 C         -2.1162981201        0.6195753700       -0.2560803198
 C         -0.8949144302        1.1243668497       -0.6852474104
 H         -0.6019595806        0.9942405293       -1.7146684804
 N         -2.9748012305       -0.0145314102       -1.1688713592
 S         -3.7514913105       -1.4264738900       -0.7060305884
 O         -2.9805037403       -2.1818265797        0.2544988817
 O         -4.0739297310       -2.1012279604       -1.9447475280
 C         -5.2617287202       -0.8480086195        0.0426183919
 C         -5.6666829398       -1.3649931190        1.2576059422
 C         -6.8525696096       -0.9145898486        1.8169406525
 C         -7.6092924097        0.0394002112        1.1543047323
 C         -7.1902548501        0.5467439607       -0.0666658680
 C         -6.0070634403        0.0991931803       -0.6321424882
 H         -5.6481024906        0.4680153199       -1.5783048285
 H         -7.7808554202        1.2893234205       -0.5785788381
 H         -8.5304378795        0.3900152015        1.5922830825
 H         -7.1793287293       -1.3086673782        2.7658771827
 H         -5.0417101898       -2.0991707688        1.7409291523
 H         -2.5794519708       -0.1102148107       -2.0933478893
 H         -3.4530635296        0.3731133109        1.3959939508
 H         -1.9364352189        1.4947255713        2.9932211098
 H          0.2556568209        2.3400078608        2.2335613087
 H          1.5832672204        3.1081437899        0.3990934680
 C          1.4541305796        2.5891705591       -1.6694523118
 C          0.7964495296        3.8412967489       -2.1643112021
 C          2.2897710596        3.7677727188       -2.0647674926
 H          2.8660459093        3.7072513384       -2.9758916727
 H          2.7787115299        4.3205157391       -1.2758266529
 H          0.3458074592        3.8357481086       -3.1449857619
 H          0.2695430599        4.4442520693       -1.4404423321
 H          1.4726322593        1.7294535988       -2.3276064614
