  62
        -98.94697774
 C         -2.3338640234       -0.2818695660       -0.4544122067
 C         -1.4104148230        0.5463570187       -1.1358767159
 C         -1.5103705349        1.9883302733       -0.8663628742
 C         -2.4257916037        2.4393628145        0.0082926248
 C         -2.6041870212        3.8747200814        0.4086078305
 C         -1.7652701572        4.2243126080        1.6449758184
 C         -0.3003117880        3.7973763459        1.5459015677
 H         -0.2347474261        2.7061494733        1.5493310713
 H          0.2008011957        4.1445302261        2.4528324360
 C          0.4395551411        4.3388490159        0.3147700765
 H          1.4207276869        4.7000148594        0.6303837970
 H         -0.1021682278        5.1887707637       -0.1032450318
 C          0.6795104623        3.2928881805       -0.7752422606
 H          1.0980791106        2.3946467118       -0.3145217221
 H          1.4239982609        3.6870903416       -1.4725652065
 C         -0.5551560923        2.8927920713       -1.5938741838
 H         -0.2101716667        2.3282752282       -2.4649165083
 H         -1.0688409256        3.7892900215       -1.9479865833
 H         -2.2058590718        3.7306964765        2.5144765425
 H         -1.8200045901        5.3034552239        1.8029273605
 H         -3.6586261450        4.0361325133        0.6405855815
 H         -2.3237718575        4.5154523325       -0.4253121465
 O         -3.2885410735        1.6170290600        0.6584436613
 C         -3.2543969442        0.2496742888        0.4539476189
 O         -4.0976371795       -0.3853184347        1.1212044834
 O         -0.5382796485        0.1298628029       -1.9452655653
 C         -2.3687870202       -1.7982690493       -0.5840340362
 C         -1.3873255083       -2.4176049511        0.3834167987
 C         -1.7913052476       -3.3824127792        1.2978588389
 C         -0.8918511201       -3.9020930012        2.2121678539
 C          0.4113521297       -3.4414562881        2.2551982682
 C          0.8249585618       -2.4743191727        1.3448713941
 C         -0.0637212668       -2.0019074793        0.3924603413
 H          0.2677928254       -1.2670095271       -0.3197333150
 N          2.1321435628       -1.9641386767        1.3779232456
 S          2.4105491225       -0.3025388801        1.2867065582
 O          3.3150036093       -0.0144711232        2.3838528474
 O          1.1746909465        0.4384980012        1.2736141324
 C          3.3177326279       -0.1215449328       -0.2367847163
 C          4.6944281898       -0.2326656040       -0.1705413011
 C          5.4386877834       -0.1187964966       -1.3325307077
 C          4.7970090563        0.1035979637       -2.5417441606
 C          3.4166288611        0.2127301402       -2.5920741145
 C          2.6643000230        0.0978742846       -1.4322026608
 H          1.5886769777        0.1825042685       -1.4619387727
 H          2.9109279240        0.3858828668       -3.5286759992
 H          5.3741803897        0.1941959949       -3.4485363032
 H          6.5128363834       -0.2021631647       -1.2920764970
 H          5.1517688202       -0.3903254823        0.7922725090
 H          2.7045975894       -2.3631738066        2.1084135305
 H          1.1039386075       -3.8197490433        2.9924021441
 H         -1.2151938619       -4.6542964314        2.9159445107
 H         -2.8208503334       -3.7092077760        1.3036208227
 H         -3.3781787160       -2.1006088982       -0.2717155628
 C         -2.1338104504       -2.3048357535       -1.9932104317
 C         -2.6778094720       -3.6451298214       -2.3827172180
 C         -3.2893848917       -2.3961344487       -2.9416833677
 H         -3.1221016327       -2.1553301384       -3.9805397848
 H         -4.2605717298       -2.0953471659       -2.5755207721
 H         -2.0892032349       -4.2675438089       -3.0388166382
 H         -3.2382864227       -4.1941913607       -1.6412354672
 H         -1.1770585360       -2.0100821970       -2.4021874518
