  62
        -98.93533648
 C          1.5192081613        1.0106851901        0.7015600625
 C          2.4772588598        1.1251623988       -0.3361137891
 C          3.7829464787        0.4969252680       -0.0723387092
 C          3.9982127888       -0.1254064208        1.0995992075
 C          5.2607749254       -0.8467121233        1.4713692277
 C          5.1909427708       -2.3293730856        1.0799136240
 C          4.7309517367       -2.5686129702       -0.3583458593
 H          4.7505348599       -3.6471635800       -0.5301208673
 H          3.6908721485       -2.2482987108       -0.4579748247
 C          5.5833340980       -1.8650614491       -1.4238017243
 H          6.5467074274       -1.5811832946       -0.9986176127
 H          5.7814639389       -2.5700077722       -2.2339545444
 C          4.9245817027       -0.6360297830       -2.0528534332
 H          5.5074854080       -0.3518387389       -2.9329395740
 H          3.9191409434       -0.8942441697       -2.3951486685
 C          4.8239328386        0.6007376467       -1.1514770757
 H          5.8027459244        0.8243543665       -0.7226211091
 H          4.5208958347        1.4441603649       -1.7785159680
 H          4.4900070021       -2.8324317212        1.7504773035
 H          6.1779436318       -2.7719500560        1.2265540613
 H          6.1045246387       -0.3692710164        0.9768335176
 H          5.3941608717       -0.7717534626        2.5519531186
 O          3.0575969689       -0.2060088120        2.0762772218
 C          1.8018718002        0.3471043523        1.8980545851
 O          1.0336872654        0.1925642754        2.8708982294
 H         -1.1081793185       -0.7244417049        0.4803018649
 C         -1.1609346569       -0.2304197233       -0.4792095595
 C         -0.5619689399        1.0151641399       -0.6442939119
 C         -0.5986003250        1.5901911213       -1.9094413237
 C         -1.2275799276        0.9422706286       -2.9590052856
 C         -1.8520027405       -0.2775951721       -2.7768718691
 C         -1.8107393325       -0.8720298647       -1.5217674407
 N         -2.4388241184       -2.1051626310       -1.2807088655
 S         -3.2692732894       -2.3008626368        0.1593546717
 O         -2.3562594266       -2.6380219346        1.2224515307
 O         -4.2801335746       -3.2934073780       -0.1393362270
 C         -4.0320518534       -0.7159666275        0.4618528249
 C         -4.9762317708       -0.2715237392       -0.4433326808
 C         -5.5422447854        0.9795336450       -0.2628760374
 C         -5.1532105062        1.7637055560        0.8125441147
 C         -4.2109470854        1.3001582409        1.7170775195
 C         -3.6427273150        0.0480065378        1.5426504494
 H         -2.9020596524       -0.3427372615        2.2231093781
 H         -3.9072614365        1.9087998435        2.5537266508
 H         -5.5866024422        2.7418433489        0.9485202364
 H         -6.2792579593        1.3409466099       -0.9616292590
 H         -5.2595501064       -0.9111823741       -1.2632484973
 H         -2.9597044009       -2.4719561898       -2.0639774749
 H         -2.3522880273       -0.7724183765       -3.5951816516
 H         -1.2365376620        1.4031303442       -3.9350486589
 H         -0.1053120688        2.5256911541       -2.0986407075
 C          0.1119404416        1.5861646192        0.5790423054
 H         -0.4252420717        1.1631376739        1.4424147246
 C          0.1102321763        3.0906976829        0.8188314452
 C          0.6528090055        4.1286570126       -0.1150138411
 C         -0.8217688862        4.0520614636        0.1453203573
 H         -1.2709404213        4.8271300074        0.7482119075
 H         -1.4645369163        3.6715437968       -0.6321263241
 H          1.2065920471        4.9471197017        0.3235427609
 H          1.0542208946        3.8063332326       -1.0611497496
 H          0.3067738537        3.2789294181        1.8721796987
 O          2.2761621549        1.7157916610       -1.4257929224
