  62
        -98.94630300
 C         -2.5727788784       -0.0134738262       -0.4306530832
 C         -2.1928126692       -0.5828359506        0.8086779138
 C         -1.8798488127       -2.0168200954        0.7815445435
 C         -1.9524844228       -2.6958894759       -0.3778162380
 C         -1.7203537161       -4.1720663260       -0.5596074497
 C         -0.2457035473       -4.5657548643       -0.7140115825
 C          0.5781522193       -4.5013700144        0.5720403692
 H          0.0613585364       -5.0452390334        1.3636541621
 H          1.5189836793       -5.0199954804        0.3777430461
 C          0.8925643566       -3.0759275957        1.0447571434
 H          1.9451699070       -3.0050578902        1.3307831538
 H          0.7525753760       -2.3700581870        0.2220838490
 C          0.0765541942       -2.5971924249        2.2454868688
 H          0.3528806104       -1.5559430971        2.4320896584
 H          0.3435895339       -3.1842531072        3.1280390611
 C         -1.4441680235       -2.6683550375        2.0590169886
 H         -1.7771846723       -3.7065239981        2.0886050287
 H         -1.9137977827       -2.1247018884        2.8829588778
 H         -0.2195136946       -5.5916159076       -1.0892083397
 H          0.2116088676       -3.9202922381       -1.4677768476
 H         -2.1564820952       -4.7148221323        0.2798488506
 H         -2.2500963414       -4.4563043612       -1.4715370681
 O         -2.2970564503       -2.1046557699       -1.5533531895
 C         -2.5933856635       -0.7531318792       -1.6114857831
 O         -2.8698633708       -0.3357736517       -2.7562665365
 H         -0.3328622019        1.0121052035       -0.9649137005
 C         -0.4741190082        1.9044755127       -0.3728853602
 C         -1.7599408665        2.3001480148       -0.0296949713
 C         -1.9191035075        3.4586129359        0.7204918357
 C         -0.8131729490        4.1810209634        1.1339439171
 C          0.4666031026        3.7586270192        0.8247219890
 C          0.6358446966        2.6075606182        0.0640853802
 N          1.9228006233        2.1454316747       -0.2861999583
 S          2.2135899951        0.4983388005       -0.0144320481
 O          1.5684160131       -0.2768097461       -1.0441117324
 O          1.8901358344        0.1695307110        1.3547390505
 C          3.9800388017        0.4487624209       -0.2545200858
 C          4.4677922333        0.4932667091       -1.5466988313
 C          5.8390886513        0.4879636442       -1.7458278529
 C          6.6951151162        0.4388481098       -0.6553239402
 C          6.1908740725        0.3920397290        0.6354893765
 C          4.8199591103        0.3986696670        0.8414131161
 H          4.3810454950        0.3563395816        1.8253386249
 H          6.8584773400        0.3503569980        1.4809336701
 H          7.7619923539        0.4343699663       -0.8132724131
 H          6.2341824428        0.5216213283       -2.7482964495
 H          3.7630847467        0.5217266702       -2.3615130100
 H          2.6472339484        2.6875559607        0.1689684717
 H          1.3280416444        4.3116089140        1.1683668806
 H         -0.9499027489        5.0773419443        1.7199053056
 H         -2.9086560709        3.7909162991        0.9889997619
 C         -2.9185031610        1.4617708348       -0.5141811081
 H         -3.0707505028        1.6778418024       -1.5827669672
 C         -4.2103451625        1.7386384599        0.2283428449
 C         -5.1395772010        2.8171706431       -0.2395923756
 C         -5.5086857909        1.3771848016       -0.4263690114
 H         -6.2955090060        0.9596699451        0.1835341615
 H         -5.4585315598        0.9585389173       -1.4212916376
 H         -5.6789782023        3.3894564187        0.5000758552
 H         -4.8514563476        3.3813688730       -1.1137271515
 H         -4.1201403651        1.5623546399        1.2942047356
 O         -2.1409922911        0.0671507167        1.8863990757
