  62
        -98.93853430
 C         -1.4279849598       -1.1612052687       -0.4779663602
 C         -2.7728027898       -1.5422996988       -0.2687678901
 C         -3.7877577998       -0.4913363787       -0.4598130596
 C         -3.3904520199        0.7417407814       -0.8194140492
 C         -4.2505982599        1.9618860514       -0.9997664086
 C         -4.2915461897        2.7893119410        0.2962504317
 C         -5.3736227295        2.3728421906        1.2918845317
 H         -6.3516096696        2.6620490508        0.9012822920
 H         -5.2070925893        2.9412492503        2.2098410419
 C         -5.4079301594        0.8816737805        1.6375760312
 H         -5.9322363393        0.7706261302        2.5888481812
 H         -4.3907479194        0.5141361205        1.7851331909
 C         -6.1223906496        0.0317944509        0.5760693210
 H         -6.6635506097        0.6913656411       -0.1022329887
 H         -6.8732184895       -0.5955340693        1.0611177909
 C         -5.2153057598       -0.9084583288       -0.2330119295
 H         -5.6813669199       -1.1052388185       -1.2042625895
 H         -5.1431498097       -1.8733378290        0.2787654302
 H         -4.4559843297        3.8374607011        0.0385282721
 H         -3.3087940796        2.7180719408        0.7691742015
 H         -5.2499470300        1.6861194316       -1.3228408986
 H         -3.7804681400        2.5621901817       -1.7812223085
 O         -2.0833980999        1.0642452114       -1.0193156793
 C         -1.0697782999        0.1362254614       -0.8449755898
 O          0.0739042701        0.5798651915       -1.0468064599
 O         -3.1126684497       -2.7072608789        0.0752203695
 C         -0.3275999998       -2.1854813388       -0.2608074308
 C          0.5518181804       -1.7055468392        0.8663987192
 C          0.0054984907       -1.6278757197        2.1460534393
 C          0.7528313108       -1.1548922000        3.2062938594
 C          2.0585143508       -0.7381761700        3.0107336093
 C          2.6127838206       -0.8131237495        1.7388180592
 C          1.8630743204       -1.3012093892        0.6763222691
 H          2.3206433302       -1.3523076488       -0.2965508110
 N          3.9388454605       -0.4162602094        1.5205710891
 S          4.4312190703        0.2652051511        0.0815843792
 O          4.5088391301       -0.7410945186       -0.9482183111
 O          5.6876213803        0.9056781709        0.4172273592
 C          3.2437794502        1.5203762212       -0.3593133601
 C          2.9322497600        1.6959235617       -1.6905171500
 C          2.0637129899        2.7124785718       -2.0494682195
 C          1.5197146901        3.5302346915       -1.0736300691
 C          1.8410358703        3.3405036710        0.2604658308
 C          2.7156131204        2.3306131809        0.6244658303
 H          2.9783609106        2.1662156705        1.6571756502
 H          1.4071291205        3.9725715607        1.0192590811
 H          0.8318728900        4.3128744916       -1.3535909787
 H          1.8038102997        2.8536724522       -3.0865457894
 H          3.3629368699        1.0256869419       -2.4175570203
 H          4.4019724307        0.0028761203        2.3130623292
 H          2.6449909209       -0.3632337203        3.8357166993
 H          0.3165512110       -1.1031090704        4.1924015695
 H         -1.0187655293       -1.9423568197        2.2934067294
 H         -0.8386255697       -3.1028206489        0.0644092490
 C          0.4212803900       -2.4726842884       -1.5436427910
 C          1.2181118400       -3.7354611883       -1.6701482716
 C         -0.0552561602       -3.5715468280       -2.4432205013
 H          0.0038105897       -3.4252445277       -3.5113640113
 H         -0.9215389001       -4.1341734282       -2.1269446414
 H          2.1569844899       -3.7001194381       -2.2019870318
 H          1.2169087001       -4.4113636986       -0.8282929718
 H          0.8113187899       -1.5783633082       -2.0164596408
