  62
        -98.93164193
 C         -2.8502734399       -0.1926330109        0.3037157799
 C         -2.5914163000       -1.0616305308       -0.7885839002
 C         -1.9379465697       -2.3361114007       -0.4769917805
 C         -1.6459679694       -2.6322910908        0.8016087394
 C         -0.9526568891       -3.8723676608        1.2957652791
 C          0.5242218608       -3.9959742905        0.8693770887
 C          0.7440755807       -4.8564735003       -0.3813017914
 H          1.6360917008       -5.4687353502       -0.2338297917
 H         -0.0957654092       -5.5449701104       -0.4861455313
 C          0.9412446803       -4.0914542501       -1.6939575014
 H          1.9621765602       -3.7040879399       -1.7326592716
 H          0.8245258802       -4.8014886300       -2.5162395815
 C          0.0051607600       -2.9046885002       -1.9278518510
 H          0.1139726497       -2.5832882601       -2.9663996210
 H          0.3299062000       -2.0566419702       -1.3176671610
 C         -1.4818132899       -3.1831807605       -1.6281796707
 H         -1.6425720597       -4.2400013505       -1.4200699008
 H         -2.0920188601       -2.9004408405       -2.4885098006
 H          1.0608184411       -4.4564287305        1.7006869585
 H          0.9399656706       -2.9973302104        0.7261630687
 H         -1.0108959189       -3.8303518609        2.3851550491
 H         -1.5079269590       -4.7512189008        0.9612187891
 O         -1.9738952993       -1.8071187310        1.8291340195
 C         -2.5105108996       -0.5422633711        1.6100660198
 O         -2.6359663594        0.1273053488        2.6533517599
 O         -2.8884292203       -0.7684263607       -1.9783857801
 C         -3.3192897902        1.2045400090       -0.0712612098
 C         -2.1065194804        1.9460358093       -0.5811422399
 C         -2.1146129308        2.6496871194       -1.7782647199
 C         -0.9483324510        3.2039526697       -2.2797103900
 C          0.2518887692        3.0493126998       -1.6086104803
 C          0.2630461395        2.3652925996       -0.4024506304
 C         -0.9086433003        1.8399340894        0.1125104598
 H         -0.8792368300        1.2920421393        1.0456783097
 N          1.5075996297        2.1144674497        0.2490220693
 S          2.1043976598        0.6073893999       -0.2602205610
 O          2.0364616895        0.5661902701       -1.6982328210
 O          1.4374670502       -0.4635060703        0.4514021290
 C          3.8046968899        0.7232710701        0.2615161786
 C          4.2401817803        0.0227832200        1.3688263884
 C          5.5583755304        0.1643854102        1.7749390781
 C          6.4103599001        1.0034384504        1.0734935280
 C          5.9570639097        1.7016778005       -0.0362840318
 C          4.6417300997        1.5628031103       -0.4480863215
 H          4.2446917894        2.0781578204       -1.3066501213
 H          6.6230208395        2.3525093906       -0.5794602618
 H          7.4346022601        1.1127531305        1.3931539178
 H          5.9131297306       -0.3785264299        2.6362242780
 H          3.5431125705       -0.6203213901        1.8822795285
 H          1.3794014000        2.0456811696        1.2518994493
 H          1.1760480990        3.4282820700       -2.0123241305
 H         -0.9702616313        3.7359902098       -3.2185102600
 H         -3.0352778809        2.7280640294       -2.3377354596
 H         -4.0035698204        1.0695629790       -0.9241047696
 C         -4.0752946601        1.9469760888        1.0159729305
 C         -3.4786871701        3.0783399288        1.7930894805
 C         -4.5390927604        3.3527126587        0.7718962408
 H         -5.5234770903        3.6368951085        1.1106098810
 H         -4.2322347506        3.8244584789       -0.1492774692
 H         -3.7272139099        3.1498444986        2.8406237206
 H         -2.4651702202        3.3719779590        1.5668941303
 H         -4.7503339299        1.2953565586        1.5592510706
