  62
        -98.94379826
 C          1.4570845193       -0.9215797742        0.4891294100
 C          2.5325490902       -1.1140856570       -0.4154685213
 C          3.4314533177        0.0271038455       -0.6231152218
 C          3.1745917773        1.1848757358        0.0119415156
 C          4.0245079864        2.4189730946       -0.0749899494
 C          5.0924287634        2.4400265025        1.0275681130
 C          5.8847845557        1.1377623078        1.1431225842
 H          5.2130572304        0.3409890217        1.4704177093
 H          6.6272758638        1.2777060181        1.9316504475
 C          6.5880325096        0.7058917306       -0.1511774643
 H          7.6067685349        0.3955843580        0.0903537184
 H          6.6605490835        1.5534271233       -0.8336588979
 C          5.9235265163       -0.4685678090       -0.8719688346
 H          5.7625008770       -1.2877554844       -0.1667771490
 H          6.6120302451       -0.8290061576       -1.6408481017
 C          4.5891830162       -0.1599491384       -1.5630349134
 H          4.3304314638       -1.0202797732       -2.1874309598
 H          4.7025497198        0.7117110885       -2.2114088136
 H          4.5982563122        2.6272417254        1.9837246897
 H          5.7754309457        3.2682757419        0.8301605061
 H          3.3755733296        3.2894341283        0.0384855504
 H          4.4967275645        2.4581425139       -1.0549350243
 O          2.1246402353        1.3446536686        0.8526384214
 C          1.2337478503        0.3078693340        1.1115829245
 O          0.3288734869        0.6222942751        1.9054885284
 O          2.7330507350       -2.2039402353       -1.0182630272
 C          0.5280992244       -2.1061458948        0.6851258898
 C         -0.5498094888       -2.1254214695       -0.3715192417
 C         -0.9542309321       -3.3199591109       -0.9567153078
 C         -1.9447052083       -3.3270852259       -1.9228530047
 C         -2.5418198811       -2.1478408692       -2.3287937206
 C         -2.1313046011       -0.9438707751       -1.7635980681
 C         -1.1508653467       -0.9444176788       -0.7819735461
 H         -0.8312115980       -0.0073087437       -0.3576742077
 N         -2.6794558092        0.2622330099       -2.2055987183
 S         -2.6531186711        1.6973716964       -1.3599472048
 O         -3.4602983651        2.5795123010       -2.1771792617
 O         -1.2967896762        2.1215338001       -1.1213541175
 C         -3.5269660276        1.3716795163        0.1597367472
 C         -4.9001908392        1.2330036278        0.0687642940
 C         -5.6293098454        0.9718234404        1.2158195979
 C         -4.9758729340        0.8566593622        2.4342612645
 C         -3.6005324725        1.0027712678        2.5083825348
 C         -2.8612350361        1.2590067694        1.3621816030
 H         -1.7875447939        1.3597444052        1.4044918631
 H         -3.0854186501        0.9168800113        3.4516143729
 H         -5.5409966246        0.6549876576        3.3305273347
 H         -6.7001619537        0.8610001638        1.1588412134
 H         -5.3705407800        1.3529615377       -0.8935254442
 H         -3.4571350862        0.1904569346       -2.8424994435
 H         -3.3050965366       -2.1511624842       -3.0914615707
 H         -2.2510988468       -4.2601657331       -2.3705173699
 H         -0.4722355868       -4.2421472339       -0.6675731966
 H          1.1603989644       -2.9932876094        0.5162098656
 C         -0.0370286037       -2.2113978260        2.0944764292
 C         -1.4614016525       -1.8999479889        2.4302056939
 C         -0.9831694272       -3.3186020772        2.4550997084
 H         -0.8611325524       -3.8070527056        3.4098861850
 H         -1.3171755030       -3.9706809051        1.6631115284
 H         -1.6548469225       -1.3973778210        3.3646552545
 H         -2.1159016430       -1.5911094524        1.6296055318
 H          0.7009226642       -1.9409497811        2.8427317340
