  62
        -98.94074022
 C          2.0183685014        1.3236066779        0.3776864591
 C          2.5051635282        0.6324448678       -0.7597677472
 C          3.7307870827       -0.1571391675       -0.5531552141
 C          4.2965714682       -0.2009643158        0.6658172525
 C          5.5135393808       -1.0037725654        1.0216726349
 C          5.1290643388       -2.4027972026        1.5230922377
 C          4.1346225820       -3.1313612702        0.6187676584
 H          3.9601224373       -4.1176783690        1.0544241884
 H          3.1795649769       -2.6006096066        0.6356160808
 C          4.5981020666       -3.2899066882       -0.8360939977
 H          5.6767958230       -3.1417033906       -0.8993507825
 H          4.3919136176       -4.3124393622       -1.1593556224
 C          3.8996088035       -2.3593428700       -1.8295472765
 H          2.8159559870       -2.4355298697       -1.7055731669
 H          4.1364283619       -2.7027155271       -2.8401316047
 C          4.2914921813       -0.8786546215       -1.7462084635
 H          3.8740119705       -0.3770321527       -2.6242188795
 H          5.3787806921       -0.7831860325       -1.7795869149
 H          4.6814590943       -2.3047299082        2.5149119859
 H          6.0391419003       -2.9976790328        1.6189112203
 H          6.1576690694       -1.0836929606        0.1482252620
 H          6.0524290078       -0.4796513791        1.8128989825
 O          3.7826306015        0.4491797122        1.7412571908
 C          2.6272519405        1.2058684570        1.6295238444
 O          2.2418446753        1.7104602711        2.7035244946
 O          1.9591445713        0.6638222512       -1.8915990544
 C          0.7569679707        2.1691685615        0.3179198857
 C         -0.3283380117        1.4172349606       -0.4131736264
 C         -0.9517987660        1.8802500736       -1.5634306063
 C         -1.9320615098        1.1230112003       -2.1817606153
 C         -2.3175859379       -0.0998719964       -1.6658040386
 C         -1.7104107236       -0.5656624656       -0.5058646665
 C         -0.7323702780        0.1958677328        0.1140505862
 H         -0.2537436647       -0.1716290632        1.0143633903
 N         -2.1073323096       -1.7995925078        0.0364072196
 S         -3.7442805796       -2.1386622364        0.1039665258
 O         -3.8978470700       -3.0363517534        1.2277330424
 O         -4.1891553039       -2.6468815531       -1.1697835347
 C         -4.5377701448       -0.5753651890        0.4379413350
 C         -5.4556715546       -0.0640762545       -0.4565987819
 C         -6.0379763233        1.1650044043       -0.1909224292
 C         -5.6907627329        1.8595563916        0.9571437274
 C         -4.7698713472        1.3305616819        1.8487709672
 C         -4.1865749383        0.1011978104        1.5893684720
 H         -3.4709235229       -0.3384210670        2.2658548275
 H         -4.5008899465        1.8716741253        2.7418218198
 H         -6.1399015858        2.8187605969        1.1606277592
 H         -6.7559947153        1.5775832821       -0.8811091468
 H         -5.6936789061       -0.6360990153       -1.3385848405
 H         -1.6425683725       -2.0423701902        0.8983212225
 H         -3.0637489856       -0.7095139262       -2.1490822878
 H         -2.3976407614        1.4876167457       -3.0845290088
 H         -0.6494065663        2.8198667644       -1.9947034053
 H          0.4397879586        2.2742654597        1.3687934052
 C          0.9738962246        3.5805129440       -0.2070215939
 C          2.2918123450        4.2732700892       -0.0337547252
 C          1.8289421958        3.8746168115       -1.4013087066
 H          1.5102432570        4.6531278333       -2.0791294703
 H          2.3114788383        3.0427380569       -1.8886901596
 H          2.2899227897        5.3207833098        0.2279191502
 H          3.0969554391        3.7127291036        0.4192739726
 H          0.0899643292        4.1974072252       -0.0777225076
