  62
        -98.93823795
 C         -2.4897092337       -0.7017949024        0.0180091785
 C         -2.8969582604        0.4522471527        0.7359585077
 C         -4.0355210068        1.1984933812        0.1875017658
 C         -4.6075189219        0.7724746884       -0.9532097487
 C         -5.8057149293        1.4027643379       -1.6006954453
 C         -7.1086172176        0.7627543923       -1.1014061129
 C         -7.2001871370        0.6556507810        0.4207713341
 H         -8.1722141648        0.2179788245        0.6583554243
 H         -6.4384299895       -0.0424918269        0.7754490192
 C         -7.0459067149        1.9912984208        1.1615474390
 H         -7.2120640211        2.8191395894        0.4713412538
 H         -7.8151335076        2.0541061280        1.9341746164
 C         -5.6973061386        2.1770435865        1.8596012805
 H         -5.7750478614        3.0412338784        2.5247744339
 H         -5.4833766713        1.3042732041        2.4818353872
 C         -4.4954529866        2.4171491753        0.9371048959
 H         -4.7195260797        3.2322389124        0.2459546003
 H         -3.6508874287        2.7193990503        1.5632081373
 H         -7.1827375332       -0.2434978282       -1.5202161471
 H         -7.9482118729        1.3500077394       -1.4777866124
 H         -5.8074922511        2.4698726149       -1.3870713292
 H         -5.7299547793        1.2569936718       -2.6794928801
 O         -4.1786450804       -0.3224404852       -1.6270809135
 C         -3.1149131662       -1.0919965271       -1.1673740579
 O         -2.8501928282       -2.0612611006       -1.9001814484
 H          0.8422794954       -0.6456926134        1.9667309656
 C          1.0056882582       -0.6105314915        0.8977857301
 C         -0.0147919588       -0.9953880074        0.0409168547
 C          0.2041764035       -0.9256437981       -1.3314750886
 C          1.4194932325       -0.4865599675       -1.8241317355
 C          2.4348792304       -0.1025720743       -0.9652383102
 C          2.2256157838       -0.1629125782        0.4055633331
 N          3.2452977450        0.2436729744        1.2809779574
 S          4.7917975625       -0.3695471577        1.0557751244
 O          4.7529848620       -1.6782410918        0.4461311691
 O          5.4229365967       -0.2818075151        2.3541598920
 C          5.5630521973        0.7975565895       -0.0450739864
 C          6.1136860840        0.3609711701       -1.2340389062
 C          6.7187073832        1.2851714519       -2.0716095084
 C          6.7627404743        2.6219940981       -1.7066804941
 C          6.2073101810        3.0437859839       -0.5076951380
 C          5.6021921630        2.1249008697        0.3346391357
 H          5.1633413781        2.4117362865        1.2757075419
 H          6.2438169826        4.0842331840       -0.2274697085
 H          7.2330664280        3.3394994792       -2.3603950928
 H          7.1515311996        0.9591397532       -3.0037253977
 H          6.0517925631       -0.6875522429       -1.4788415683
 H          2.9835841081        0.2198057173        2.2559023596
 H          3.3816387817        0.2422532092       -1.3474112496
 H          1.5777806001       -0.4403644990       -2.8909906276
 H         -0.5862968996       -1.2243153931       -2.0034999787
 C         -1.3261254002       -1.4825386331        0.6024688079
 H         -1.3355114576       -1.2293784716        1.6749315974
 C         -1.4948383039       -2.9919158223        0.4984219356
 C         -0.6608876660       -3.8695206450       -0.3806051091
 C         -0.4674727247       -3.9028200323        1.1039108864
 H         -0.8006874828       -4.7693624197        1.6546735605
 H          0.4306012045       -3.4483979802        1.4965322120
 H         -1.1514309601       -4.7011734971       -0.8626539367
 H          0.1088977896       -3.4130526630       -0.9823034153
 H         -2.5322532100       -3.2883985351        0.6168124889
 O         -2.3329241028        0.8344665590        1.7971937580
