  62
        -98.94228172
 C         -1.1072117787       -1.2738904689       -0.0198575199
 C         -1.6038338984       -0.3211758033        0.8973362514
 C         -2.6057742910        0.6298809677        0.3880454176
 C         -2.9811404079        0.5637635663       -0.9029164468
 C         -3.9173770191        1.4382144476       -1.7107375849
 C         -4.8997212632        2.3811781982       -1.0203483178
 C         -5.9989950335        1.6869136042       -0.2176810299
 H         -6.5844032904        2.4554505505        0.2917929688
 H         -6.6632554124        1.1685514424       -0.9136006001
 C         -5.5170504383        0.6660432060        0.8098264896
 H         -6.3970681072        0.2625023507        1.3178096856
 H         -5.0305224983       -0.1668355711        0.2980726690
 C         -4.5723681647        1.2119724287        1.8788459465
 H         -4.4513085039        0.4339423546        2.6370712295
 H         -5.0250937085        2.0807619356        2.3603043228
 C         -3.1658513362        1.6002640786        1.3879117130
 H         -3.1470967938        2.6122212970        0.9884641307
 H         -2.4903295827        1.5778066026        2.2483674413
 H         -4.3638586932        3.0914269088       -0.3973467500
 H         -5.3830180736        2.9589887540       -1.8130763984
 H         -3.2693052217        2.0325030578       -2.3655829246
 H         -4.4728105787        0.7562859842       -2.3627056948
 O         -2.4677177021       -0.3706652684       -1.7556717761
 C         -1.5212353965       -1.2980247076       -1.3500579131
 O         -1.1432313050       -2.0724658449       -2.2498052776
 H          0.8702410972        0.0375404318       -0.6256640119
 C          1.5721315721       -0.7694156554       -0.7640497105
 C          1.2501807956       -2.0426768264       -0.3170939173
 C          2.1589533032       -3.0702278015       -0.5440200264
 C          3.3456659994       -2.8207808702       -1.2109607264
 C          3.6631351159       -1.5476474321       -1.6490380783
 C          2.7625326455       -0.5127451301       -1.4249625464
 N          3.0338851966        0.7921951513       -1.8580801882
 S          2.4494641542        2.1081322605       -1.0142801975
 O          1.0332530777        2.2682259154       -1.2354825569
 O          3.2830094114        3.2059126467       -1.4574938290
 C          2.7909941132        1.7468719229        0.6985420482
 C          1.7621289444        1.4983262766        1.5823990046
 C          2.0673596482        1.1651080499        2.8925994363
 C          3.3909252849        1.0935985761        3.2965840287
 C          4.4154082699        1.3602941561        2.4001322629
 C          4.1155562137        1.6858865874        1.0880192365
 H          4.8836372778        1.9068188771        0.3648575304
 H          5.4439149647        1.3099905362        2.7191447368
 H          3.6237916545        0.8301166783        4.3162340398
 H          1.2610247908        0.9513862721        3.5761959196
 H          0.7392514456        1.5555242122        1.2442573800
 H          3.9611093591        0.9460042457       -2.2242103242
 H          4.5889206389       -1.3559679076       -2.1690363215
 H          4.0378289105       -3.6297265183       -1.3881972876
 H          1.9331660189       -4.0679444726       -0.2047025241
 C         -0.0424232593       -2.2504527625        0.4367074355
 H          0.1448117453       -2.0035387015        1.4936112769
 C         -0.5512472775       -3.6761438580        0.3544421706
 C         -0.1431024668       -4.6929841246        1.3773044431
 C         -1.5391340756       -4.1495456797        1.3773701258
 H         -2.3469954237       -4.7900861748        1.0568887861
 H         -1.8176324732       -3.4525215690        2.1543813873
 H          0.0066996584       -5.7132741931        1.0575603735
 H          0.5209846370       -4.3728059677        2.1658787652
 H         -0.6951018674       -4.0049558942       -0.6686461034
 O         -1.2134974507       -0.2537441722        2.0949269292
