  62
        -98.93834808
 C          1.9596689606        0.8839275747        0.0038760232
 C          2.2905660258       -0.1015062670        0.9605988638
 C          2.3959956701       -1.4836120220        0.4676646313
 C          2.1548298321       -1.7393087325       -0.8296636132
 C          2.1484279336       -3.0726803553       -1.5356174650
 C          3.2739587555       -4.0612578728       -1.1993917930
 C          4.6237236267       -3.4160558918       -0.8523593266
 H          5.4045273507       -3.8816564679       -1.4563944316
 H          4.6050791251       -2.3543796790       -1.1039899971
 C          5.0056164985       -3.5850588171        0.6201363203
 H          4.7723657018       -4.6068084447        0.9269961050
 H          6.0851694906       -3.4509191359        0.7207191558
 C          4.3370145041       -2.6086592379        1.5870897759
 H          4.7392946825       -1.6032074405        1.4368854409
 H          4.5975708863       -2.9095828655        2.6045716646
 C          2.8060019125       -2.5150813658        1.4793456674
 H          2.3630938144       -3.4850702385        1.2656504288
 H          2.4191519987       -2.1628228590        2.4397801944
 H          2.9624285699       -4.6989251244       -0.3732834361
 H          3.3928885870       -4.7092878000       -2.0693281380
 H          1.1805099646       -3.5462130637       -1.3446861819
 H          2.1800196948       -2.8283437689       -2.6002428977
 O          1.8342966046       -0.7575352772       -1.7195270438
 C          1.7111640599        0.5649303630       -1.3300518578
 O          1.4004557331        1.3466013372       -2.2500936020
 H         -0.4452625668        0.9210028727        0.8606157527
 C         -0.6665444469        1.8858807015        0.4262785254
 C          0.3697587744        2.7688824072        0.1493589775
 C          0.0571071054        4.0089507576       -0.3919729514
 C         -1.2573615478        4.3344434159       -0.6799690474
 C         -2.2794479350        3.4334487113       -0.4475438987
 C         -1.9785217993        2.1972387530        0.1145006052
 N         -2.9928651648        1.2623443154        0.3908231886
 S         -2.6249025613       -0.3790366373        0.2372726630
 O         -1.9814785625       -0.8257922491        1.4485817682
 O         -1.9170751456       -0.6297157332       -0.9983065718
 C         -4.2727395874       -1.0577753862        0.1582200288
 C         -4.9825687087       -1.2076130992        1.3348631202
 C         -6.2763393075       -1.7008866914        1.2783925546
 C         -6.8361558340       -2.0334326040        0.0535483133
 C         -6.1110928231       -1.8794237027       -1.1184533198
 C         -4.8167948209       -1.3851788792       -1.0691576564
 H         -4.2114307444       -1.2545418885       -1.9520609190
 H         -6.5470315014       -2.1417304025       -2.0689213104
 H         -7.8430012788       -2.4177391782        0.0121567367
 H         -6.8419221879       -1.8243943775        2.1877355314
 H         -4.5010329913       -0.9440579993        2.2620231552
 H         -3.8640382913        1.4864037424       -0.0715379296
 H         -3.3002142812        3.6800752102       -0.6969640393
 H         -1.4862119997        5.2981994230       -1.1090014619
 H          0.8435948706        4.7150598949       -0.6023615921
 C          1.7792057298        2.3222006677        0.4525141434
 H          1.9103115182        2.3078416963        1.5454942100
 C          2.8418386751        3.2125959337       -0.1568823096
 C          3.3192905144        4.4318961448        0.5725025721
 C          4.2082285554        3.2313595076        0.4579957792
 H          5.0666284518        3.2818157271       -0.1948413677
 H          4.3623555465        2.6208062607        1.3358755529
 H          3.5717299068        5.3101812379       -0.0021966999
 H          2.8771934836        4.6433083758        1.5343289936
 H          2.7781146903        3.2501968800       -1.2387631929
 O          2.4805553264        0.1608114050        2.1803851565
