  62
        -98.94393052
 C          1.6089182585        1.4213045756       -0.2221379955
 C          2.7411271629        0.8677402868        0.4120845787
 C          3.2488548311       -0.4099985080       -0.1225012470
 C          2.6155142177       -0.9701685900       -1.1702233488
 C          2.9117139209       -2.2830858250       -1.8449475945
 C          2.4072608565       -3.4822992892       -1.0278443370
 C          2.7350026431       -3.4249381556        0.4615522198
 H          2.2755912442       -2.5305859487        0.8879670690
 H          2.2517293138       -4.2824556720        0.9383983776
 C          4.2213627984       -3.4689867997        0.8100774183
 H          4.2941018186       -3.5201214161        1.8995627174
 H          4.6542903148       -4.3866354350        0.4053254297
 C          5.0634739651       -2.2825582196        0.3343406284
 H          5.3021776241       -2.3680299688       -0.7223553948
 H          6.0152451088       -2.3245560021        0.8721327813
 C          4.4587967243       -0.9134383310        0.6275027378
 H          5.2341419048       -0.1511099116        0.4820401119
 H          4.1973195221       -0.8584592949        1.6907405892
 H          2.8178456579       -4.3959557875       -1.4620808994
 H          1.3181367440       -3.5180735247       -1.1165843608
 H          2.3852763871       -2.2700438053       -2.8019951439
 H          3.9743314701       -2.3726165498       -2.0498855345
 O          1.5321605114       -0.3919266633       -1.7603562880
 C          0.9846268901        0.7840204354       -1.2923237900
 O         -0.0310515360        1.1648996472       -1.9081634103
 O          3.3066828734        1.4115742638        1.4018794989
 C          0.9950102653        2.6977659247        0.3220031643
 C         -0.4464187652        2.4487588838        0.6935807973
 C         -1.4697682576        3.3560169599        0.4484586528
 C         -2.7772733680        3.0483676153        0.7846790573
 C         -3.0961361581        1.8250211687        1.3452633404
 C         -2.0773975157        0.9159318182        1.6044231008
 C         -0.7656045796        1.2456933908        1.3102948289
 H          0.0124207808        0.5270577766        1.5232387968
 N         -2.3400299704       -0.3635797563        2.1409041666
 S         -2.0201311187       -1.6595690569        1.1210387696
 O         -2.4266657920       -2.8333551711        1.8649699698
 O         -0.6482435306       -1.6211983667        0.6898889818
 C         -3.1430838981       -1.4097713165       -0.2426344639
 C         -2.8162791813       -0.5132353863       -1.2400480834
 C         -3.7448684269       -0.2665039642       -2.2407397376
 C         -4.9721139417       -0.9104586703       -2.2267268839
 C         -5.2832634702       -1.8090896962       -1.2169132608
 C         -4.3639673401       -2.0574176822       -0.2113025457
 H         -4.5589390503       -2.7483348719        0.5931796637
 H         -6.2369119562       -2.3118634726       -1.2085686697
 H         -5.6884237845       -0.7112696102       -3.0081714898
 H         -3.4937137650        0.4329055476       -3.0219961038
 H         -1.8534687797       -0.0250965002       -1.2397017231
 H         -3.2771836362       -0.4632721924        2.5082555906
 H         -4.1195808974        1.5716295009        1.5778500315
 H         -3.5612763137        3.7630175349        0.5863750674
 H         -1.2442676039        4.3028165993       -0.0145575947
 H          1.5582275803        2.9291645852        1.2388332338
 C          1.1729953055        3.8358403443       -0.6618850396
 C          1.3200922580        5.2457567951       -0.1746263779
 C          2.5031785653        4.5211281847       -0.7402197228
 H          2.8763932508        4.8142326677       -1.7099672290
 H          3.2723020891        4.1835844574       -0.0608041361
 H          0.8828817169        6.0414014828       -0.7588311999
 H          1.2926059971        5.4122424761        0.8916192564
 H          0.6421090536        3.6652278360       -1.5918881251
