  62
        -98.94539488
 C         -1.5896434169       -1.2836029335       -0.7412907140
 C         -2.8318477682       -0.9706723689       -0.1296190898
 C         -3.4304837531        0.3227957548       -0.4763824614
 C         -2.7963776301        1.1234527007       -1.3515902014
 C         -3.2553733711        2.4950663164       -1.7518026509
 C         -2.6306511998        3.5685614128       -0.8502059991
 C         -2.7607560853        3.2732355437        0.6442311963
 H         -2.1503935657        2.3987865238        0.8858634746
 H         -2.3210096525        4.1179141528        1.1799588205
 C         -4.2011560811        3.0526166833        1.1281972043
 H         -4.3433874815        3.6056830706        2.0590785678
 H         -4.9020425281        3.4601195994        0.3985263144
 C         -4.5614819555        1.5942043850        1.4180419239
 H         -5.5087295743        1.5803968926        1.9639738068
 H         -3.8009989244        1.1535350025        2.0683939973
 C         -4.7260266058        0.6903321291        0.1897963606
 H         -5.1683102427       -0.2518251515        0.5267317874
 H         -5.4092853099        1.1569316271       -0.5226455822
 H         -3.0995783385        4.5281263694       -1.0773097844
 H         -1.5656835028        3.6427893237       -1.0836813056
 H         -4.3411366590        2.5419896409       -1.6930524673
 H         -2.9468279695        2.6752229441       -2.7830683272
 O         -1.6287117102        0.7807717494       -1.9442881080
 C         -0.9732384387       -0.4008645727       -1.6273861719
 O          0.1159785473       -0.5287837377       -2.2212749746
 O         -3.4162778114       -1.7487004519        0.6730068482
 C         -0.9415793846       -2.5864807551       -0.3008857424
 C         -0.0967699524       -2.3260447322        0.9252340693
 C         -0.3083630876       -3.0281889516        2.1048645796
 C          0.4277955318       -2.7310687186        3.2384224638
 C          1.3606918473       -1.7111411080        3.2219208856
 C          1.5821145057       -1.0030279857        2.0440345598
 C          0.8804317662       -1.3405071552        0.8973332267
 H          1.0584812904       -0.7948073142       -0.0136975681
 N          2.5134826791        0.0425490281        2.0099990312
 S          2.2864761455        1.4339238491        1.0944957928
 O          2.7976095540        2.4997793737        1.9347065464
 O          0.9202719767        1.5731617565        0.6547620317
 C          3.4200227068        1.2086541153       -0.2605491424
 C          2.9818641088        0.8013166212       -1.5032846357
 C          3.9165186885        0.6173136189       -2.5123127949
 C          5.2612296993        0.8419407393       -2.2655776936
 C          5.6851153780        1.2539750810       -1.0106203211
 C          4.7583586797        1.4387164024        0.0009510621
 H          5.0409540294        1.7715886310        0.9858532866
 H          6.7313114733        1.4309129510       -0.8197977816
 H          5.9808983288        0.6964901802       -3.0558378067
 H          3.5787749342        0.2962283231       -3.4849058550
 H          1.9315437839        0.6251756977       -1.6803014111
 H          2.9227749341        0.2652593106        2.9055535685
 H          1.9110654601       -1.4551625253        4.1147345941
 H          0.2560806610       -3.2821322295        4.1506785232
 H         -1.0710055977       -3.7920800175        2.1374743424
 H         -1.7733961611       -3.2373279218        0.0031923121
 C         -0.1418821509       -3.3005132730       -1.3702690423
 C          0.0757939396       -4.7779449336       -1.2458662909
 C         -0.8395591198       -4.2412720181       -2.3042317347
 H         -0.5189361216       -4.2733084860       -3.3344196922
 H         -1.9037348369       -4.3756834917       -2.1749520353
 H          1.0290238175       -5.1833768472       -1.5477738801
 H         -0.3686934954       -5.2810077475       -0.4005652364
 H          0.6643822635       -2.7051261957       -1.7768455467
