  62
        -98.93816679
 C         -2.5900006854       -1.3390744898        0.1532989126
 C         -2.5519289514       -0.3308566144       -0.8371433809
 C         -3.6545031898        0.6495335321       -0.8140875286
 C         -4.6224193791        0.5263859164        0.1105920810
 C         -5.8016814156        1.4320835713        0.3356558127
 C         -5.4768558473        2.4948884801        1.3989194560
 C         -4.8181514697        3.7642423805        0.8604315085
 H         -5.5540142003        4.3376849062        0.2928768022
 H         -4.5243422679        4.3690229965        1.7213455714
 C         -3.5884354693        3.5384720752       -0.0231686058
 H         -2.9524019996        2.7679473783        0.4173087267
 H         -3.0085856232        4.4635787236       -0.0349090555
 C         -3.9453603705        3.1581255471       -1.4679235952
 H         -3.4105433194        3.8152868389       -2.1570126716
 H         -5.0078250138        3.3367577192       -1.6322350883
 C         -3.5944397822        1.7187914101       -1.8708897272
 H         -4.2315287797        1.4176948807       -2.7095289096
 H         -2.5630679847        1.6870028193       -2.2374285982
 H         -4.8277846798        2.0326287082        2.1470227194
 H         -6.4024978678        2.7818366999        1.9017822339
 H         -6.6092653787        0.8005725768        0.7117231917
 H         -6.1203142207        1.8906048650       -0.5955296682
 O         -4.6227303034       -0.4663380254        1.0426775484
 C         -3.6115231289       -1.4047197997        1.1019851890
 O         -3.7309708342       -2.2356876924        2.0243046773
 O         -1.6444853346       -0.2441482483       -1.7072928529
 C         -1.4885695084       -2.3827926442        0.2445678654
 C         -0.1933921478       -1.6771036462        0.5639191284
 C         -0.0290777264       -1.1292362371        1.8339722461
 C          1.1160038857       -0.4275725510        2.1568452115
 C          2.1195687898       -0.2498092262        1.2192265920
 C          1.9581922025       -0.7777685906       -0.0535820388
 C          0.8130613694       -1.4996233141       -0.3700795793
 H          0.6993412075       -1.8972472727       -1.3659188108
 N          2.9682016756       -0.6071391444       -1.0131415306
 S          3.7272193126        0.8808943413       -1.1558243846
 O          2.8588440462        1.9735887412       -0.7844837421
 O          4.2510836127        0.9045835924       -2.5043803523
 C          5.0890084963        0.7660886399       -0.0121791149
 C          5.3068779417        1.7794156701        0.9005536873
 C          6.3800339427        1.6782652471        1.7723376826
 C          7.2128799883        0.5714553113        1.7156912756
 C          6.9822669335       -0.4366177664        0.7914116146
 C          5.9121653601       -0.3407455381       -0.0836460199
 H          5.7010872581       -1.1011386451       -0.8166996360
 H          7.6318413967       -1.2961023727        0.7507153477
 H          8.0463878158        0.4941629271        2.3958523699
 H          6.5605081656        2.4615280467        2.4910246563
 H          4.6291948828        2.6184439702        0.9128181911
 H          2.7330003080       -0.9810896732       -1.9211648649
 H          3.0093911154        0.3080754189        1.4606284046
 H          1.2302540704       -0.0109620888        3.1461799140
 H         -0.8210881931       -1.2549615179        2.5600772939
 H         -1.7492733186       -3.0202878734        1.1003186536
 C         -1.4398774164       -3.2391885989       -1.0027532618
 C         -0.7307731803       -4.5587074670       -0.9654751710
 C         -2.2266018255       -4.5132517042       -1.0422121143
 H         -2.7055574511       -4.7933950858       -1.9684922183
 H         -2.7945091211       -4.7754986175       -0.1615104901
 H         -0.1817736885       -4.8757126245       -1.8391110639
 H         -0.2804132754       -4.8543579036       -0.0301285107
 H         -1.3938819534       -2.6588790597       -1.9165886455
