  62
        -98.92950005
 C          2.3733131227        0.9912449927        0.5045550548
 C          3.2317885559        0.6948149354       -0.5799612253
 C          4.3853737579       -0.1837980352       -0.2860224911
 C          4.5622049307       -0.6464478215        0.9634253212
 C          5.6437566539       -1.5528316454        1.4951642883
 C          7.0806247508       -1.2533612355        1.0406819255
 C          7.6440329869       -2.2990042678        0.0767603701
 H          8.7345054504       -2.2773302103        0.1364696869
 H          7.3196000722       -3.2875028933        0.4085525718
 C          7.2578230424       -2.1063914831       -1.3887498751
 H          7.7927955164       -1.2442391297       -1.7930093868
 H          7.5988214457       -2.9867463295       -1.9387129874
 C          5.7630016721       -1.9126325929       -1.6512159335
 H          5.1751022539       -2.5849583632       -1.0274830252
 H          5.5682082154       -2.1898583237       -2.6894265733
 C          5.2871378735       -0.4650733675       -1.4572924944
 H          4.7098286296       -0.1483433522       -2.3315225765
 H          6.1484787907        0.2073689126       -1.4080647296
 H          7.7142101922       -1.2392322376        1.9290737985
 H          7.1295702713       -0.2611008432        0.5949237003
 H          5.5732712753       -1.4681641537        2.5820075715
 H          5.3839972320       -2.5848740409        1.2467406848
 O          3.6984755856       -0.3451942430        1.9762751426
 C          2.5991943223        0.4648493899        1.7781476080
 O          1.9084946399        0.6521564390        2.8008380274
 O          3.0642874773        1.1278045695       -1.7484927022
 C          1.1497031380        1.8847188688        0.3815789361
 C         -0.0542971613        1.0809034391       -0.0373596146
 C         -0.0351604801        0.2923957210       -1.1838323272
 C         -1.1522047393       -0.4354728049       -1.5507000689
 C         -2.3040874860       -0.3995894992       -0.7838826450
 C         -2.3330663363        0.3808008184        0.3635393412
 C         -1.2115637152        1.1165778394        0.7261811696
 H         -1.2341225488        1.7146593768        1.6276884670
 N         -3.4923613482        0.4059108678        1.1556585677
 S         -4.9708350691        0.6857256099        0.4112040357
 O         -4.8135619668        1.4781952078       -0.7859386172
 O         -5.8135780923        1.2423482037        1.4465454386
 C         -5.5591390992       -0.9424072108       -0.0035021731
 C         -5.8858404230       -1.2445911803       -1.3109099850
 C         -6.3493626568       -2.5166725740       -1.6088714226
 C         -6.4784449255       -3.4580760014       -0.5992769442
 C         -6.1494143441       -3.1374233501        0.7095071583
 C         -5.6861926812       -1.8675316339        1.0140813146
 H         -5.4235870983       -1.5779957916        2.0179786358
 H         -6.2516521811       -3.8720879683        1.4919427997
 H         -6.8382323816       -4.4475540341       -0.8334778304
 H         -6.6067070013       -2.7676737079       -2.6253813191
 H         -5.7652711490       -0.4820346456       -2.0639563514
 H         -3.4013836428        0.9537862697        1.9988361043
 H         -3.1750241648       -0.9683781207       -1.0656253414
 H         -1.1253672592       -1.0414534730       -2.4436716866
 H          0.8624399404        0.2623059420       -1.7825149138
 H          0.9620718475        2.2483150469        1.4046006231
 C          1.3880342493        3.1105732351       -0.4901806693
 C          0.7266374763        3.3413048833       -1.8120890902
 C          0.3138615641        4.1501462354       -0.6216586189
 H          0.5905785120        5.1925996922       -0.5761203228
 H         -0.6476868912        3.9293955908       -0.1811185988
 H          1.3126194970        3.8133082851       -2.5857473119
 H          0.0395082341        2.5967859888       -2.1814751554
 H          2.4049903335        3.4775968254       -0.3964351277
