  62
        -98.93589856
 C          1.7191170994        0.9504619696       -0.0353549125
 C          2.3444602694       -0.2599241810       -0.4101484007
 C          3.8022694694       -0.3426646006       -0.1902955810
 C          4.4505799595        0.7249624503        0.3093253971
 C          5.9175418696        0.8796630808        0.6225337865
 C          6.9065544193        0.3410938092       -0.4224955829
 C          7.6540499195       -0.9117494301        0.0372511190
 H          8.5923498894       -0.9823650209       -0.5174874812
 H          7.9081083298       -0.7970560783        1.0930722887
 C          6.9010348195       -2.2262001904       -0.1609437487
 H          6.8683719092       -2.4668708921       -1.2258148183
 H          7.4757153197       -3.0138929896        0.3320771724
 C          5.4707220296       -2.2501390396        0.3820711117
 H          5.1967999897       -3.2932375293        0.5543024735
 H          5.4191582199       -1.7451898380        1.3459555809
 C          4.4357902394       -1.6498248112       -0.5814030390
 H          3.5932937594       -2.3400060914       -0.6925565577
 H          4.8711340591       -1.5467817628       -1.5797375093
 H          6.3874558291        0.1499470476       -1.3604116124
 H          7.6446891493        1.1213210089       -0.6153762443
 H          6.0661932196        1.9537256010        0.7549467347
 H          6.1152925899        0.4167753424        1.5925645972
 O          3.8038488796        1.8790540408        0.6432100054
 C          2.4376707395        2.0217016605        0.4918624755
 O          1.9879534096        3.1263770911        0.8576431639
 O          1.7177587593       -1.2361195718       -0.9003764390
 C          0.2223059994        1.1209794793       -0.2178619724
 C         -0.5267714704        0.0223125404        0.4955281496
 C         -0.1408029701       -0.3321840175        1.7862831900
 C         -0.7902372098       -1.3423129564        2.4672635219
 C         -1.8557798300       -2.0076469374        1.8859279532
 C         -2.2615781603       -1.6500474395        0.6071590327
 C         -1.6024032305       -0.6370343006       -0.0783464091
 H         -1.9310167308       -0.3940351822       -1.0747899794
 N         -3.3444533605       -2.2985382605       -0.0063971659
 S         -4.4478336307       -1.3967980420       -0.8769374071
 O         -5.6649557907       -2.1792029119       -0.8418820255
 O         -3.9345692211       -1.0959965041       -2.1889239977
 C         -4.6579143205        0.1065340196        0.0617691805
 C         -5.0411621802        0.0060591917        1.3849745808
 C         -5.1857315600        1.1640517729        2.1308666789
 C         -4.9480667202        2.3978356620        1.5442335569
 C         -4.5733826806        2.4824697498        0.2126861066
 C         -4.4247013307        1.3265544286       -0.5374291815
 H         -4.1292923710        1.3475548569       -1.5737147017
 H         -4.3933406407        3.4431746691       -0.2432884350
 H         -5.0569256001        3.2987476629        2.1272706254
 H         -5.4803243597        1.1022756046        3.1660547791
 H         -5.2283252500       -0.9661515776        1.8107599824
 H         -3.7980633303       -2.9969403996        0.5637852753
 H         -2.3605205098       -2.8028458465        2.4130555346
 H         -0.4677433096       -1.6138045448        3.4611311022
 H          0.6905221900        0.1881176833        2.2424343490
 H         -0.0343126105        2.0776699400        0.2610280961
 C         -0.1069659710        1.2127264069       -1.6937313125
 C         -1.2440763112        2.0656903760       -2.1657334736
 C          0.1692302888        2.4945759757       -2.4185642546
 H          0.5546439485        2.4452453741       -3.4259624847
 H          0.5674528889        3.3140516966       -1.8377578661
 H         -1.8343572214        1.7179609247       -3.0008416029
 H         -1.8048768810        2.6033393572       -1.4164213343
 H          0.0935084689        0.2879125360       -2.2233229410
