  62
        -98.93633195
 C         -1.1784490359       -1.7702993434        0.3837525856
 C         -1.5618688414       -0.5696071293        1.0299397095
 C         -2.8131702097        0.0437617163        0.5664455173
 C         -3.5082559339       -0.5358798040       -0.4287630731
 C         -4.8341898103       -0.0862671416       -0.9842299977
 C         -4.8502168273        1.2753567557       -1.7052141734
 C         -5.2417244593        2.4588744836       -0.8119341724
 H         -5.8877121120        3.1298309680       -1.3818431056
 H         -5.8367820845        2.0864165428        0.0228626891
 C         -4.0801153954        3.3016845457       -0.2773777084
 H         -4.4676658645        3.9327413561        0.5251973323
 H         -3.7230394801        3.9604973501       -1.0718553678
 C         -2.8742886471        2.5203804225        0.2444420292
 H         -2.2981516588        2.1253888998       -0.5957459113
 H         -2.2158103799        3.2161232600        0.7649300710
 C         -3.2216531239        1.3494665602        1.1833664784
 H         -2.6621287064        1.4409669274        2.1162245205
 H         -4.2850555244        1.3451255631        1.4185958411
 H         -3.8809004388        1.4516638495       -2.1706557629
 H         -5.5847919250        1.1975401504       -2.5084069472
 H         -5.5662209243       -0.0747936340       -0.1733491523
 H         -5.1309464203       -0.8655175819       -1.6892998818
 O         -3.0882010557       -1.6745694803       -1.0440034968
 C         -1.9128708729       -2.3105884235       -0.6720095905
 O         -1.6539283635       -3.3269814767       -1.3432732894
 O         -0.8968195121       -0.0420306528        1.9609894889
 C          0.1061299449       -2.4479249615        0.8304828112
 C          1.1500679797       -2.2599587371       -0.2423974808
 C          1.5538772666       -3.2732027319       -1.1017425535
 C          2.4914146961       -3.0184752007       -2.0873457082
 C          3.0616391228       -1.7655273307       -2.2153944266
 C          2.6675598550       -0.7448965697       -1.3564816350
 C          1.7056259744       -0.9940584382       -0.3914377748
 H          1.3889210232       -0.1967613112        0.2653588044
 N          3.2304254628        0.5370620115       -1.4552343357
 S          3.6837703289        1.3528108902       -0.0603176321
 O          4.8066480621        2.1702678957       -0.4724161268
 O          3.9291689279        0.4383567234        1.0291002990
 C          2.3199391009        2.4337594489        0.3091472761
 C          1.6335173134        2.3082661979        1.4993122822
 C          0.6207787412        3.2096215041        1.7867975082
 C          0.3165974884        4.2166785543        0.8845188975
 C          1.0088863692        4.3236051273       -0.3127972929
 C          2.0219017828        3.4260819371       -0.6049199760
 H          2.5962638369        3.4855914728       -1.5144520845
 H          0.7644363882        5.1058519453       -1.0133135694
 H         -0.4603467432        4.9283655830        1.1175618719
 H          0.0747619750        3.1126202819        2.7114484835
 H          1.8950759486        1.5130557536        2.1793560956
 H          3.9366854127        0.6274704574       -2.1715872770
 H          3.8058150262       -1.5741794783       -2.9739729862
 H          2.7915326424       -3.8109074370       -2.7563546953
 H          1.1221393266       -4.2558321152       -1.0103344403
 H          0.4371344078       -1.8873950983        1.7163641875
 C         -0.1176476228       -3.8913209427        1.2262818773
 C          0.9222520232       -4.5967602565        2.0428324224
 C         -0.3897167742       -4.2215880890        2.6619477958
 H         -1.0983756244       -5.0052768627        2.8842169837
 H         -0.4065230512       -3.4047833924        3.3687048451
 H          1.1170282699       -5.6393085485        1.8428548699
 H          1.7980761574       -4.0322594702        2.3265535874
 H         -0.6517411063       -4.4631944480        0.4774131955
