  62
        -98.94186810
 C         -2.7764660747       -0.2408048605       -0.2351122906
 C         -2.0428797846        0.5760938802       -1.1296969317
 C         -2.0078510637        2.0112989614       -0.8129557773
 C         -2.6674289221        2.4731164365        0.2632709222
 C         -2.6754265897        3.9013653027        0.7232183668
 C         -1.5593217316        4.1721088112        1.7413222805
 C         -0.1795236194        3.6763160006        1.3067610400
 H         -0.1708213839        2.5832710110        1.2826838892
 H          0.5302342189        3.9762717133        2.0814795713
 C          0.2943241690        4.2101751779       -0.0519459235
 H          1.3414756500        4.5059798439        0.0396628554
 H         -0.2744699125        5.1011438564       -0.3222326731
 C          0.2162669411        3.1871651059       -1.1868845848
 H          0.6615295125        2.2473767212       -0.8481708952
 H          0.8108756096        3.5596794843       -2.0258148017
 C         -1.1934161946        2.8927520974       -1.7171092879
 H         -1.0909048375        2.3449988577       -2.6583653380
 H         -1.7157484450        3.8299878451       -1.9197421501
 H         -1.8180973543        3.6765098991        2.6800221281
 H         -1.5173007626        5.2475515767        1.9253432815
 H         -2.5603855485        4.5548188524       -0.1394206176
 H         -3.6389463621        4.1030182104        1.1948032612
 O         -3.3889117401        1.6671119343        1.0834880142
 C         -3.4340026221        0.3010522871        0.8744337265
 O         -4.0994067822       -0.3220742705        1.7267303767
 H         -0.3039335153       -1.3981674745       -1.1689310881
 C         -0.3508314955       -2.0139405256       -0.2830326548
 C         -1.5872593382       -2.3364654785        0.2577216434
 C         -1.6220320867       -3.1181499251        1.4061585335
 C         -0.4489872379       -3.5463701768        2.0049076138
 C          0.7819407556       -3.1849073889        1.4855617870
 C          0.8225985461       -2.4091930381        0.3360892460
 N          2.0769049917       -1.9525218467       -0.1581748107
 S          2.5780491560       -0.6184413830        0.7666798640
 O          2.8749995652       -1.0930847454        2.0949310411
 O          1.6056293664        0.4489244059        0.6758049194
 C          4.0869296413       -0.1581486517       -0.0630859918
 C          4.0858479711        0.9118589737       -0.9364623097
 C          5.2600607467        1.2377171155       -1.5974266857
 C          6.4061788846        0.4889425145       -1.3776556165
 C          6.3902709367       -0.5842689315       -0.4988645547
 C          5.2204446004       -0.9143208874        0.1661211275
 H          5.1607791160       -1.7332285654        0.8634195277
 H          7.2840138035       -1.1629887250       -0.3302115935
 H          7.3179715688        0.7450413082       -1.8937300297
 H          5.2746315373        2.0726204421       -2.2794657096
 H          3.1727551122        1.4697337924       -1.0732976241
 H          1.9700507943       -1.6217779800       -1.1110464577
 H          1.7026054653       -3.4666639351        1.9695089023
 H         -0.4941458347       -4.1490695731        2.8994873928
 H         -2.5771984787       -3.3635480361        1.8478466467
 C         -2.8461163760       -1.7592430785       -0.3450173547
 H         -3.6926856759       -2.0671610729        0.2830690907
 C         -3.0836477643       -2.2645089157       -1.7535320995
 C         -3.6381041380       -3.6433445368       -1.9427456805
 C         -4.4891959415       -2.4457602481       -2.2382995920
 H         -4.7122562125       -2.2092133664       -3.2676924208
 H         -5.2886671288       -2.2055585702       -1.5523359956
 H         -3.8628895262       -4.2177954468       -1.0568079301
 H         -3.2761600170       -4.2338559932       -2.7701918766
 H         -2.3543244337       -1.9102642679       -2.4692757112
 O         -1.4364343627        0.1557953083       -2.1529814391
