  62
        -98.93738829
 C         -1.8252444600       -0.9108206553       -0.1956786204
 C         -2.4424803544       -0.2436406022        0.8879894160
 C         -3.5669185616        0.6379310261        0.5477708673
 C         -3.9142066769        0.8034017836       -0.7413503331
 C         -4.9985019491        1.7038954834       -1.2717181988
 C         -6.4418113358        1.3376148170       -0.8749022131
 C         -6.9606699100        2.0695895697        0.3690463011
 H         -6.4015926651        2.9985743051        0.4883360390
 H         -8.0023350172        2.3508959865        0.2015947825
 C         -6.9179371619        1.2752296083        1.6780381098
 H         -7.7500903943        0.5677072877        1.6928774517
 H         -7.0699548313        1.9780064441        2.5001748234
 C         -5.6377312262        0.4804174838        1.9360642844
 H         -5.6555775020        0.1327450264        2.9709103771
 H         -5.6290733662       -0.4148675991        1.3098318196
 C         -4.3330289497        1.2594155043        1.6793174130
 H         -4.5444511218        2.3073398036        1.4712340485
 H         -3.6885138563        1.2064134488        2.5592111562
 H         -6.5201263686        0.2587147142       -0.7435456655
 H         -7.0789930244        1.6072036027       -1.7186519754
 H         -4.7865395613        2.7295489247       -0.9607231408
 H         -4.9054664927        1.6601068093       -2.3588161130
 O         -3.2631050933        0.1774710677       -1.7595963672
 C         -2.2157660643       -0.6998813687       -1.5182630345
 O         -1.7266159425       -1.2085732926       -2.5436091321
 H          0.3296573627        0.5791530547        0.3367497603
 C          0.9543516215       -0.0251894779       -0.3095054133
 C          0.5867983386       -1.3417305181       -0.5637352231
 C          1.4050954058       -2.1108971596       -1.3793545973
 C          2.5397713360       -1.5610378058       -1.9523689672
 C          2.8893433010       -0.2450969280       -1.7158219227
 C          2.0897428131        0.5267088026       -0.8810225450
 N          2.4486577812        1.8583751324       -0.6134066177
 S          4.0540460224        2.1827354231       -0.2693908841
 O          4.0310508010        3.3611344267        0.5687671754
 O          4.7993257532        2.3013261567       -1.4979275745
 C          4.6320985382        0.7680608460        0.6518739883
 C          3.9967077459        0.4603601981        1.8387024610
 C          4.4089740145       -0.6545462487        2.5499589404
 C          5.4444656298       -1.4389530052        2.0648607866
 C          6.0762295407       -1.1132281988        0.8749795904
 C          5.6665543245       -0.0002430564        0.1582216346
 H          6.1272177097        0.2874025422       -0.7727367816
 H          6.8823233529       -1.7236427978        0.5012067302
 H          5.7598956069       -2.3084784406        2.6195625427
 H          3.9180205177       -0.9086032634        3.4757621639
 H          3.1969573503        1.0918481534        2.1919423125
 H          1.8302340237        2.3298307191        0.0295677271
 H          3.7584596343        0.2017610222       -2.1705500836
 H          3.1587430145       -2.1662200592       -2.5967068898
 H          1.1491766476       -3.1380726640       -1.5786498842
 C         -0.6732252769       -1.8588654644        0.0856512900
 H         -0.5308629782       -1.8252512954        1.1760449851
 C         -1.0340475802       -3.2732144890       -0.3146175167
 C         -0.3943416047       -4.4377917152        0.3786041024
 C         -1.8339351154       -4.1114569179        0.6356203819
 H         -2.5935747302       -4.7644969570        0.2327844879
 H         -2.0989248514       -3.6697245118        1.5852818041
 H          0.3200035648       -4.2234273798        1.1587459732
 H         -0.1660005616       -5.3201907561       -0.1996691990
 H         -1.2598020234       -3.3630496586       -1.3710632236
 O         -2.0625447892       -0.3681300667        2.0842223340
