  62
        -98.94475121
 C          2.4285835190        1.0205266783        0.0065308555
 C          2.8802583452        0.1510313290        1.0353173430
 C          3.3228371285       -1.1817612108        0.6183713077
 C          3.3057011709       -1.5087155092       -0.6859677810
 C          3.7270744034       -2.8267043366       -1.2757848657
 C          2.6250905388       -3.8947392695       -1.2421193529
 C          2.3330253875       -4.4830013650        0.1389541042
 H          3.2659643752       -4.8137830250        0.5968287296
 H          1.7127934272       -5.3679416897       -0.0166186809
 C          1.5980322968       -3.5298220305        1.0921086358
 H          0.7835950706       -4.0669863247        1.5839282414
 H          1.1380181044       -2.7203680673        0.5182718924
 C          2.4748348653       -2.9326343902        2.1937230163
 H          2.8156839043       -3.7284804823        2.8597832882
 H          1.8630679092       -2.2405347384        2.7778041748
 C          3.7015585873       -2.1649949425        1.6841483234
 H          4.4532531653       -2.8599038435        1.3108192221
 H          4.1253145248       -1.6028571133        2.5198245469
 H          2.9373352614       -4.7074846162       -1.9023250913
 H          1.7082416037       -3.4644773039       -1.6539754739
 H          4.6119521308       -3.1968494370       -0.7572393110
 H          3.9883673185       -2.6331521962       -2.3184353202
 O          2.9020324185       -0.6388083988       -1.6467213569
 C          2.4123779361        0.6200010123       -1.3291526789
 O          2.0209491944        1.2584001710       -2.3296731815
 O          2.9130320410        0.4814410597        2.2503478307
 C          1.8860371959        2.3676474821        0.4595814516
 C          0.3896840225        2.2545028489        0.6284778442
 C         -0.2140841699        2.4044142713        1.8711995573
 C         -1.5778149518        2.2186904994        2.0210524512
 C         -2.3623284114        1.8570062465        0.9397532107
 C         -1.7649259049        1.7007507088       -0.3033826060
 C         -0.4071544082        1.9211694211       -0.4579933207
 H          0.0458719932        1.7845398647       -1.4292348719
 N         -2.5487127280        1.2429273820       -1.3970874517
 S         -2.7009562695       -0.4407185938       -1.3634806298
 O         -1.4881187677       -1.0735301952       -0.8910870312
 O         -3.1491829605       -0.8235555251       -2.6849200267
 C         -4.0151427628       -0.6866247232       -0.1899214191
 C         -5.2987956381       -0.3382825793       -0.5630958312
 C         -6.3265201163       -0.4933062775        0.3533563510
 C         -6.0536713047       -0.9892922935        1.6197641749
 C         -4.7596508495       -1.3359363371        1.9777698764
 C         -3.7268852794       -1.1837812476        1.0655711320
 H         -2.7045576565       -1.4352561002        1.2995961899
 H         -4.5488910368       -1.7208732100        2.9624942758
 H         -6.8543654735       -1.1068786010        2.3327699940
 H         -7.3341825925       -0.2261000753        0.0787287363
 H         -5.4628041580        0.0380640901       -1.5589799361
 H         -2.1338706312        1.4915994237       -2.2864306394
 H         -3.4220492009        1.6932366679        1.0487099701
 H         -2.0319354377        2.3409788913        2.9922694195
 H          0.3990467790        2.6443124798        2.7274893113
 H          2.3246977283        2.5376477512        1.4521034052
 C          2.2605718060        3.5291610739       -0.4370951900
 C          2.2235327775        4.9180768146        0.1243499540
 C          3.5384944662        4.2684379225       -0.1830656590
 H          4.1055502295        4.6193254766       -1.0320401537
 H          4.1504574178        3.9378991317        0.6434429737
 H          1.8849053337        5.7205093644       -0.5126731405
 H          1.9452760214        5.0309025708        1.1610976797
 H          1.9639765205        3.3932803590       -1.4687949838
