  62
        -98.94402503
 C          1.7317781358        1.3381230534       -0.2814682144
 C          2.7946127315        0.6418247257        0.3355981203
 C          3.1576863303       -0.6556852656       -0.2555477350
 C          2.4882082134       -1.1005354420       -1.3329878103
 C          2.7167608207       -2.3637030695       -2.1252608311
 C          2.9673744889       -3.6583323974       -1.3413698038
 C          2.2241569481       -3.7633660290       -0.0014895773
 H          1.4589269340       -2.9873577176        0.0760299960
 H          1.7071294149       -4.7244310599        0.0433449590
 C          3.1610262118       -3.6817572479        1.2062515055
 H          2.6509552502       -4.1137292649        2.0709533158
 H          4.0464879380       -4.2906648079        1.0077184965
 C          3.6001945658       -2.2726740985        1.6001294667
 H          2.7405239211       -1.7222381296        1.9940327014
 H          4.3261233647       -2.3596859250        2.4127010460
 C          4.2186558722       -1.4307805945        0.4711283965
 H          4.8048972655       -2.0481838622       -0.2051901719
 H          4.8783312523       -0.6874082117        0.9274296814
 H          2.6635821766       -4.4822029330       -1.9896845872
 H          4.0357051368       -3.7765115587       -1.1632161783
 H          1.8188086229       -2.4781893603       -2.7371770173
 H          3.5550487938       -2.1909717682       -2.8072236819
 O          1.4814830640       -0.3866368397       -1.9082830867
 C          1.0456850169        0.8112580448       -1.3731691400
 O          0.0632563771        1.3094332787       -1.9584616114
 O          3.4154063176        1.0860698177        1.3405723863
 C          1.2328113008        2.6343879263        0.3309205269
 C         -0.2109395171        2.4640612799        0.7372978365
 C         -1.1889507512        3.4306153156        0.5400016065
 C         -2.5040144912        3.1814621242        0.8957221959
 C         -2.8768376145        1.9596669070        1.4259011994
 C         -1.9023970913        0.9917695495        1.6384812414
 C         -0.5811473391        1.2631542007        1.3291698884
 H          0.1622140736        0.4999095530        1.5073560218
 N         -2.2178954732       -0.2915507689        2.1360551055
 S         -1.9807595774       -1.5619167349        1.0623391461
 O         -2.4173905604       -2.7438926628        1.7748673886
 O         -0.6209402669       -1.5655159194        0.5925007088
 C         -3.1263414920       -1.2139036766       -0.2601266391
 C         -4.3713680640       -1.8133709823       -0.2227037738
 C         -5.3040396606       -1.4883060369       -1.1935607009
 C         -4.9812964778       -0.5627678331       -2.1750303873
 C         -3.7295063627        0.0319557931       -2.1958284577
 C         -2.7878382861       -0.2917258965       -1.2299803941
 H         -1.8062103453        0.1572412194       -1.2356491662
 H         -3.4691960552        0.7517295586       -2.9553316283
 H         -5.7077012934       -0.3039018792       -2.9291937327
 H         -6.2767697530       -1.9529805813       -1.1804176420
 H         -4.5745028679       -2.5281398586        0.5585769166
 H         -3.1515481714       -0.3599702403        2.5189644799
 H         -3.9081077220        1.7526995070        1.6694641808
 H         -3.2530073504        3.9415300390        0.7343560771
 H         -0.9231754205        4.3768493613        0.0976467714
 H          1.8372104576        2.7844850980        1.2382879648
 C          1.4606869740        3.7994645651       -0.6090206641
 C          1.7102296995        5.1742186257       -0.0662297837
 C          2.8299060894        4.4020122837       -0.6945312820
 H          3.1967091069        4.7135336670       -1.6609334153
 H          3.5927340131        3.9876911029       -0.0514965478
 H          1.3107606424        6.0212253423       -0.6033057192
 H          1.7198346677        5.2944835340        1.0065329377
 H          0.8973857489        3.7041790900       -1.5305475440
