  62
        -98.94298057
 C          1.4993728381        1.3379475412       -0.3398923154
 C          1.5820870019       -0.0488002588       -0.6216004430
 C          2.6703075943       -0.7755777046        0.0545677590
 C          3.4706306279       -0.1270845563        0.9178563771
 C          4.6364537351       -0.7385460853        1.6387122299
 C          5.9340299664       -0.5828295244        0.8330905811
 C          5.8073277597       -1.0060658375       -0.6303254103
 H          5.1230423773       -0.3236623953       -1.1394901628
 H          6.7895319337       -0.8808682865       -1.0910584708
 C          5.3269814477       -2.4497199181       -0.8340857155
 H          5.9468384587       -2.9204120179       -1.6001219388
 H          5.4620755494       -3.0183855814        0.0866559240
 C          3.8742329074       -2.5759168234       -1.2968492774
 H          3.7068964300       -3.6089238681       -1.6131861727
 H          3.7105168044       -1.9357278450       -2.1673086371
 C          2.8084656436       -2.2416265823       -0.2454086410
 H          1.8375654099       -2.5605728659       -0.6362732718
 H          3.0016942985       -2.8036717098        0.6709757664
 H          6.2337641425        0.4673366923        0.8612913580
 H          6.7140922550       -1.1720957039        1.3186248540
 H          4.7505238260       -0.2306710083        2.5980905520
 H          4.4311853456       -1.7918739097        1.8209360894
 O          3.3343913078        1.1945795524        1.1987851262
 C          2.3559981200        1.9514256159        0.5777827680
 O          2.3509654402        3.1536423347        0.9143399327
 H         -0.7334489690        0.2643427770        0.4617341506
 C         -1.2488761161        1.2024205746        0.5797761150
 C         -0.7704096870        2.3369223228       -0.0592145660
 C         -1.4324513980        3.5438024415        0.1362713102
 C         -2.5528819959        3.6056448584        0.9455934774
 C         -3.0279238458        2.4721195149        1.5792306473
 C         -2.3617225881        1.2622916927        1.4062535260
 N         -2.7909024391        0.1209962290        2.0869886979
 S         -2.4364357896       -1.4490160774        1.6551621431
 O         -3.2198740211       -2.2344457532        2.5862318734
 O         -1.0138012214       -1.6741352098        1.6786173574
 C         -3.1163624937       -1.6599627493        0.0201368145
 C         -4.4909392662       -1.7853546153       -0.0688257779
 C         -5.0750755043       -1.9428200452       -1.3137069087
 C         -4.2769116552       -1.9762476889       -2.4479467537
 C         -2.9014948617       -1.8527025657       -2.3407702668
 C         -2.3081957167       -1.6880342579       -1.0970805625
 H         -1.2391583176       -1.5755227035       -1.0016075788
 H         -2.2751555443       -1.8799629501       -3.2178767370
 H         -4.7284999345       -2.1013668344       -3.4194599206
 H         -6.1454766228       -2.0411502210       -1.3968538202
 H         -5.0715470943       -1.7775935792        0.8392594249
 H         -3.6601632875        0.2041055761        2.5901376774
 H         -3.8943777628        2.5224769073        2.2204063518
 H         -3.0588488833        4.5479981269        1.0904799430
 H         -1.0508895852        4.4397566275       -0.3308307187
 C          0.4506665096        2.2584678886       -0.9427515482
 H          0.9115020324        3.2599231867       -0.9468035091
 C          0.1056471731        1.9127583707       -2.3852596967
 C         -1.1984460792        1.3030695157       -2.7921791166
 C         -0.9017341446        2.7285797758       -3.1406527197
 H         -0.6921892638        2.9778517091       -4.1698422301
 H         -1.4332581001        3.4955769571       -2.5991489078
 H         -1.1791550349        0.5606221933       -3.5742673243
 H         -1.9276766430        1.1028977295       -2.0221949684
 H          0.9804393734        1.5898212280       -2.9399501679
 O          0.8082192162       -0.6663736889       -1.3964270029
