  62
        -98.93719372
 C         -1.4983959142       -1.4853421115        0.0425097627
 C         -1.9876292157       -0.5122484363        0.9458015041
 C         -3.0883069082        0.3353855845        0.4596272187
 C         -3.5750128597        0.1384544126       -0.7776098136
 C         -4.7147918276        0.8576128513       -1.4544375482
 C         -4.7540225564        2.3883239921       -1.3306088518
 C         -3.3815194099        3.0699342214       -1.2263915922
 H         -2.5908186551        2.3608736951       -1.4794190560
 H         -3.3332239289        3.8814068253       -1.9552234625
 C         -3.1131998792        3.6672357894        0.1575671923
 H         -2.3326217730        4.4266419295        0.0655219008
 H         -4.0193281886        4.1718004128        0.4998434950
 C         -2.6579224359        2.6756406015        1.2279519975
 H         -1.6403803742        2.3378705704        1.0115118557
 H         -2.6250469526        3.2063826485        2.1822841066
 C         -3.5372661137        1.4248036849        1.3901636975
 H         -4.5899010708        1.6618782003        1.2575031370
 H         -3.3895873210        1.0392029277        2.4023011449
 H         -5.2792046325        2.7631042820       -2.2107067361
 H         -5.3536712987        2.6686345047       -0.4656558452
 H         -4.6428491802        0.5768382105       -2.5078761117
 H         -5.6531535282        0.4442248083       -1.0739382491
 O         -3.0785454488       -0.8180546417       -1.6128462422
 C         -2.0160473406       -1.6308858405       -1.2430377589
 O         -1.6381812076       -2.4174883609       -2.1316812277
 O         -1.5237581831       -0.3568195283        2.1054944896
 C         -0.3285420767       -2.3471740722        0.4718107324
 C          0.9018623427       -2.0384772622       -0.3466621377
 C          1.8669388404       -2.9929308774       -0.6458993702
 C          3.0145562729       -2.6455688764       -1.3387441628
 C          3.2311068952       -1.3410621775       -1.7458970365
 C          2.2704853050       -0.3829367251       -1.4585452953
 C          1.1245569192       -0.7321313362       -0.7619064758
 H          0.3887733940        0.0290406274       -0.5311593325
 N          2.5063486626        0.9672626687       -1.8274565371
 S          3.5020753460        1.7651461099       -0.7347877255
 O          3.4537322149        3.1638723188       -1.0953831169
 O          4.7978377625        1.1377766500       -0.7632920533
 C          2.7182832414        1.5006019330        0.8444979913
 C          2.9914523376        0.3388154647        1.5384565609
 C          2.2855811030        0.0735498178        2.7008766304
 C          1.3231114423        0.9660547483        3.1459288490
 C          1.0667440112        2.1320342978        2.4416383196
 C          1.7619590178        2.3993908846        1.2735955408
 H          1.5859621937        3.2905790179        0.6913247744
 H          0.3159681744        2.8219500825        2.7923247043
 H          0.7587140088        0.7476287065        4.0380722138
 H          2.4799765326       -0.8343435130        3.2490321256
 H          3.7451262149       -0.3322578296        1.1589837649
 H          1.6515557100        1.4993738652       -1.9198351153
 H          4.1282503553       -1.0471300276       -2.2654137206
 H          3.7527023505       -3.4008058480       -1.5613008901
 H          1.7208512747       -4.0133474925       -0.3311588565
 H         -0.1148821088       -2.0431691046        1.5088414574
 C         -0.7019554836       -3.8150481246        0.4629144068
 C         -0.1218240087       -4.7534835411        1.4776037815
 C         -1.5603659372       -4.3459063734        1.5708557834
 H         -2.3228193722       -5.0714187788        1.3303700950
 H         -1.8471811995       -3.6541173642        2.3494246012
 H          0.1033059001       -5.7649349717        1.1742939431
 H          0.5650298021       -4.3458657030        2.2037387477
 H         -0.8881881459       -4.1905547775       -0.5367921718
