  62
        -98.95133151
 C          2.3303872930        0.1884473161        0.1080668166
 C          1.6069986066       -0.4021368416       -0.9547098965
 C          1.5227806255       -1.8672164226       -0.9363726978
 C          2.0472939669       -2.5503173423        0.0972746727
 C          2.0618213366       -4.0465054300        0.2566979655
 C          0.7579408008       -4.6270379049        0.8202379152
 C         -0.4083617946       -4.6816290642       -0.1667760998
 H         -0.0787430502       -5.1566386420       -1.0919250164
 H         -1.1718468236       -5.3236790384        0.2771592973
 C         -1.0386062074       -3.3178278844       -0.4811276360
 H         -2.1281701515       -3.4075052970       -0.4551984917
 H         -0.7686656255       -2.5968481282        0.2943817225
 C         -0.6680235393       -2.7451741247       -1.8484145055
 H         -1.1550041958       -1.7728804387       -1.9460930615
 H         -1.0562805146       -3.3977632425       -2.6343011594
 C          0.8366178433       -2.5557278058       -2.0793684389
 H          1.3080517987       -3.5213305501       -2.2651809449
 H          0.9667699177       -1.9277626990       -2.9645676678
 H          0.9718229076       -5.6450013932        1.1551637346
 H          0.4632976935       -4.0421688950        1.6952505368
 H          2.2861281050       -4.5162418216       -0.7018106494
 H          2.8710789548       -4.2748139509        0.9538780600
 O          2.6711588526       -1.9393308148        1.1396919116
 C          2.8306115006       -0.5644634936        1.1691191065
 O          3.4336376669       -0.1365090485        2.1763849855
 O          1.0713921669        0.2593753825       -1.8829681151
 C          2.5186784553        1.6951230741        0.1568297392
 C          1.1731214054        2.3767914917        0.2149449342
 C          0.8369570113        3.4913237055       -0.5433315446
 C         -0.4272397888        4.0479255746       -0.4477724704
 C         -1.3864051316        3.4936279082        0.3804527266
 C         -1.0564258921        2.3829205194        1.1483845827
 C          0.2228575470        1.8559532185        1.0836821292
 H          0.4684324453        0.9963698765        1.6902809758
 N         -2.0026415226        1.7525297822        1.9841885164
 S         -2.3808772253        0.1604743186        1.6131760202
 O         -3.4422532918       -0.1964447093        2.5300714805
 O         -1.1935650144       -0.6517515836        1.6664258392
 C         -3.0385379868        0.2471984186       -0.0433334909
 C         -2.1841119093        0.4707547152       -1.1047240573
 C         -2.7230886467        0.6243557937       -2.3737105044
 C         -4.0941465961        0.5511313006       -2.5608802986
 C         -4.9385388327        0.3240504027       -1.4841222974
 C         -4.4084770245        0.1776908763       -0.2128112876
 H         -5.0245876211        0.0031575917        0.6544896406
 H         -6.0050318421        0.2649887718       -1.6304148182
 H         -4.5049698352        0.6713344624       -3.5508489695
 H         -2.0550205099        0.7983982977       -3.2022351128
 H         -1.1180416497        0.5173626635       -0.9466166040
 H         -2.8595112655        2.2777436848        2.0961998062
 H         -2.3807852466        3.9106965286        0.4326980359
 H         -0.6749321047        4.9139481266       -1.0421763117
 H          1.5631385207        3.9207304312       -1.2137485928
 H          3.0454409374        1.9031119508        1.1001504977
 C          3.3813478500        2.1565937960       -0.9994895516
 C          4.2480932132        3.3707143331       -0.8579567389
 C          4.8684008310        2.0072642379       -0.8955959700
 H          5.4204707010        1.7129402934       -1.7754265951
 H          5.2610742316        1.5955360211        0.0231684612
 H          4.3794602237        4.0140662968       -1.7148715538
 H          4.2299695469        3.8911363486        0.0877439832
 H          2.9255301164        1.9596428382       -1.9628024537
