  62
        -98.93881937
 C          2.7940988586        0.1290197839       -0.3225813046
 C          2.8503956403       -0.7945645991        0.7535693570
 C          2.4692938859       -2.1762783914        0.4508897422
 C          2.0986033497       -2.5027445902       -0.8000430003
 C          1.6485779143       -3.8596309493       -1.2671850862
 C          0.1628627444       -4.1319325193       -0.9920025625
 C         -0.1812426366       -4.4304517694        0.4680016393
 H         -1.1906243635       -4.8463306459        0.4802840508
 H          0.4937603641       -5.1955465184        0.8540139187
 C         -0.1498342919       -3.2003980452        1.3860245015
 H         -0.2102455223       -2.2899747994        0.7833954494
 H         -1.0353544961       -3.1985917520        2.0269044412
 C          1.0689719711       -3.1180581089        2.3057499316
 H          1.0380152749       -3.9386874600        3.0267672372
 H          1.0075967421       -2.1776482846        2.8600627152
 C          2.4211032675       -3.1578117720        1.5823411679
 H          3.1985196983       -2.8774996228        2.2976996106
 H          2.6240841729       -4.1652779312        1.2195220211
 H         -0.1305911552       -4.9923210586       -1.5982466633
 H         -0.4186186375       -3.2684594026       -1.3258978898
 H          2.2575144924       -4.6341618640       -0.8000322878
 H          1.8121790200       -3.8885710664       -2.3465755816
 O          2.1010817372       -1.6032004895       -1.8159152283
 C          2.3931075765       -0.2610876656       -1.6006460295
 O          2.2701564533        0.4414904957       -2.6227208013
 O          3.2052450263       -0.4693472918        1.9187806941
 C          3.0452697230        1.5849168311        0.0359124281
 C          1.7516349882        2.1516440582        0.5672366835
 C          1.6818963179        2.8299263590        1.7773776612
 C          0.4609929985        3.2342889380        2.2917649271
 C         -0.7156783979        2.9531842935        1.6195967848
 C         -0.6512341690        2.2938997578        0.4017502724
 C          0.5711276410        1.9146413115       -0.1237628851
 H          0.6001953847        1.3850390608       -1.0664016717
 N         -1.8610058992        1.9131155638       -0.2552833657
 S         -2.2144856920        0.2953437653        0.1271897754
 O         -1.9813350484        0.1112510588        1.5366373591
 O         -1.5118706347       -0.5949356195       -0.7738538872
 C         -3.9644461928        0.2439411027       -0.2080792125
 C         -4.4236607900       -0.2887056868       -1.3963629448
 C         -5.7854317493       -0.2725783820       -1.6561079873
 C         -6.6582038629        0.2774687078       -0.7299263579
 C         -6.1813532978        0.8090137579        0.4593174115
 C         -4.8217578275        0.7945053544        0.7248796533
 H         -4.4037297259        1.1878501853        1.6365464564
 H         -6.8633224974        1.2342462245        1.1778432860
 H         -7.7168181593        0.2906878173       -0.9358738766
 H         -6.1582857963       -0.6870969626       -2.5789163468
 H         -3.7091802922       -0.7109431212       -2.0849642355
 H         -1.7522654706        1.9514422163       -1.2617621926
 H         -1.6760229744        3.2198502589        2.0288335325
 H          0.4249486693        3.7499506409        3.2392260987
 H          2.5902577306        3.0091230825        2.3339159083
 H          3.7621614587        1.5586089370        0.8720145214
 C          3.6632253643        2.4151078763       -1.0766345457
 C          2.9122145049        3.4748437236       -1.8202718603
 C          3.9734477099        3.8634889252       -0.8379267396
 H          4.9051185302        4.2605008739       -1.2106147123
 H          3.6509010515        4.2914416815        0.0991906837
 H          3.1107243190        3.5790121770       -2.8758267660
 H          1.8814757275        3.6508487668       -1.5541146686
 H          4.3864469761        1.8477135091       -1.6522192986
