  62
        -98.94265914
 C         -1.9408704581       -1.4433141238        0.0648019196
 C         -1.7054324371       -0.0782986415        0.3583853196
 C         -2.8976686046        0.7207706759        0.6742478883
 C         -4.1099705955        0.1403544440        0.7019655593
 C         -5.4140786349        0.8251533621        1.0082610692
 C         -6.0389697826        1.5406249993       -0.1976355763
 C         -5.3358891813        2.8286341940       -0.6291399428
 H         -6.0013282119        3.3358802712       -1.3305779196
 H         -5.2156434993        3.4823820849        0.2352660578
 C         -3.9760307059        2.6134417151       -1.3086218176
 H         -3.8909095395        1.5731903609       -1.6318946981
 H         -3.9159967233        3.2313997513       -2.2074066534
 C         -2.7692878170        2.9615006728       -0.4368821378
 H         -2.7711257794        4.0320693129       -0.2204047661
 H         -1.8622621167        2.7332875877       -1.0029229880
 C         -2.7114930727        2.1924895954        0.8892785666
 H         -1.7233916450        2.3385118579        1.3324463037
 H         -3.4637586418        2.5745726404        1.5787295492
 H         -6.0718075231        0.8440971538       -1.0388421721
 H         -7.0695041379        1.7868438645        0.0685958710
 H         -6.1035556898        0.0468155474        1.3422981520
 H         -5.2731154062        1.5367783895        1.8222658352
 O         -4.2887735749       -1.1870144884        0.4648350373
 C         -3.2182824958       -2.0045498229        0.1377054524
 O         -3.5267187280       -3.1983861449       -0.0504216095
 H          1.8019055482       -1.6662857573       -0.9330950721
 C          1.6347897951       -1.8024857564        0.1216029132
 C          0.3812950252       -2.1468633795        0.6016623974
 C          0.2114661938       -2.3013006415        1.9757735228
 C          1.2651313471       -2.0971076235        2.8442443568
 C          2.5122187519       -1.7388627585        2.3621527541
 C          2.6965879689       -1.5914220189        0.9926934118
 N          3.9672620689       -1.2796343694        0.4843457358
 S          4.2529414779       -0.2083718679       -0.7638184987
 O          3.5046653283       -0.5951921989       -1.9322260361
 O          5.6933344461       -0.2071323754       -0.9036092163
 C          3.7270308766        1.3935041331       -0.1784062804
 C          2.3815460383        1.6555483536       -0.0164557379
 C          2.0000245219        2.9000467316        0.4610903074
 C          2.9569588089        3.8553386721        0.7644692762
 C          4.3047929577        3.5744394608        0.5968840201
 C          4.6951689248        2.3321613804        0.1248843921
 H          5.7305129416        2.0703004067       -0.0225171864
 H          5.0497630046        4.3173129631        0.8330676972
 H          2.6504921160        4.8217366458        1.1331834929
 H          0.9487185472        3.1010360987        0.5929125915
 H          1.6401095359        0.9068921109       -0.2437597048
 H          4.6827937526       -1.1818839029        1.1898405942
 H          3.3365409945       -1.5779130181        3.0403595690
 H          1.1158907866       -2.2138610937        3.9072385368
 H         -0.7652649871       -2.5746804176        2.3528221173
 C         -0.8046428985       -2.3809873274       -0.3031169644
 H         -1.1887507981       -3.3941990117       -0.0966607669
 C         -0.4381525501       -2.3457132762       -1.7797943568
 C         -1.4517927282       -2.0066026344       -2.8303863356
 C         -0.3267575443       -1.0608999541       -2.5419370370
 H          0.4714263567       -0.9605055894       -3.2634190754
 H         -0.5486190787       -0.1471826748       -2.0136222514
 H         -1.4359276370       -2.5640401782       -3.7549043061
 H         -2.4453276762       -1.7372949875       -2.5015270648
 H          0.2722866912       -3.1249943781       -2.0401322738
 O         -0.5695236993        0.4590435621        0.3624403576
