  62
        -98.94130508
 C         -1.0241418274       -1.2940185194       -0.0297527928
 C         -1.5811728932       -0.3198778296        0.8296248223
 C         -2.4979626417        0.6528413078        0.2131413219
 C         -2.7539850963        0.5725311062       -1.1038084743
 C         -3.6034685241        1.4855676931       -1.9527360589
 C         -4.9399117407        1.9635577400       -1.3696039751
 C         -5.6505393100        0.9481130763       -0.4625736569
 H         -5.1692575612       -0.0276991977       -0.5473319013
 H         -6.6823392001        0.8333868025       -0.7995778735
 C         -5.6798846306        1.3778329466        1.0060012110
 H         -6.4815673770        0.8365962594        1.5140422832
 H         -5.9215889100        2.4418182668        1.0544667161
 C         -4.3930345910        1.1205354454        1.7884907689
 H         -4.2597675438        0.0458254481        1.9380013502
 H         -4.5052814096        1.5711897349        2.7774112128
 C         -3.1064350317        1.6624620443        1.1443178952
 H         -2.3731511539        1.8178833491        1.9406823154
 H         -3.2814929007        2.6139008756        0.6472392586
 H         -5.5823321626        2.2083184490       -2.2172771261
 H         -4.7859273547        2.8893944280       -0.8169598015
 H         -3.7848136291        0.9271259838       -2.8746563553
 H         -2.9934735330        2.3540204909       -2.2211880569
 O         -2.2091456386       -0.3955410726       -1.8937396656
 C         -1.3224560550       -1.3351430045       -1.3907879489
 O         -0.8879231739       -2.1374053650       -2.2395230714
 O         -1.3096654645       -0.2512682801        2.0586120073
 C         -0.0180676014       -2.2767288507        0.5332096848
 C          1.3398802784       -2.1023975985       -0.1065893062
 C          2.2665077515       -3.1368785307       -0.1782879467
 C          3.5118302314       -2.9238197459       -0.7429190587
 C          3.8682073625       -1.6809233510       -1.2344917036
 C          2.9495259706       -0.6395763515       -1.1671713824
 C          1.7034089726       -0.8585640489       -0.6019737643
 H          0.9911273247       -0.0492779875       -0.5828360628
 N          3.2603824996        0.6298973688       -1.6678601464
 S          2.4977051916        2.0050043747       -1.1201590961
 O          1.1407813381        2.0666794862       -1.6059764585
 O          3.3690389763        3.0786296121       -1.5502077673
 C          2.5211787866        1.8886413775        0.6593308970
 C          3.7470016951        1.8160068819        1.2920544885
 C          3.7823790083        1.6896453060        2.6708562713
 C          2.5978202991        1.6306226734        3.3899507738
 C          1.3756412355        1.7126736454        2.7416176742
 C          1.3359760348        1.8478119461        1.3633300423
 H          0.4006332352        1.9059349932        0.8277557079
 H          0.4491870014        1.6471996452        3.2895645218
 H          2.6248695071        1.5197404028        4.4624693854
 H          4.7306909635        1.6307234877        3.1801682608
 H          4.6472801556        1.8680967732        0.7019693817
 H          4.2211800622        0.7815839083       -1.9325749188
 H          4.8385601389       -1.5181304352       -1.6772007160
 H          4.2185401700       -3.7376841334       -0.7982597689
 H          2.0087141869       -4.1120178819        0.2015649287
 H          0.0787546722       -2.0148500934        1.5987105221
 C         -0.5367488203       -3.6978863816        0.4290325375
 C         -0.2447506978       -4.7001736519        1.5046767528
 C         -1.6258430866       -4.1383251808        1.3598390644
 H         -2.4089596253       -4.7737315623        0.9742778893
 H         -1.9665059009       -3.4229973475        2.0943208754
 H         -0.0798551967       -5.7282355864        1.2190310422
 H          0.3435367122       -4.3737977827        2.3489885877
 H         -0.5860514726       -4.0452099687       -0.5969102836
