  62
        -98.94372596
 C         -1.0600842999       -1.5516410199        0.0582753805
 C         -1.1912323202       -0.2200247702       -0.4076694901
 C         -2.3478938603        0.5277884098        0.1133486397
 C         -3.1318188601       -0.0267992299        1.0541081401
 C         -4.3517024702        0.6148963401        1.6474952499
 C         -5.6173036002        0.2241971095        0.8715729403
 C         -5.4876336104        0.3874633388       -0.6428822398
 H         -4.7486736103       -0.3253118712       -1.0163360996
 H         -6.4487847704        0.1128451685       -1.0832071496
 C         -5.1017852007        1.8015984387       -1.0984841305
 H         -5.7320659209        2.0790062082       -1.9460791805
 H         -5.3018601908        2.5155968890       -0.2989733708
 C         -3.6494221608        1.9477261788       -1.5572999407
 H         -3.5488175911        2.9122450186       -2.0619261911
 H         -3.4174905807        1.1708633486       -2.2904553004
 C         -2.5890284307        1.8995647895       -0.4496160608
 H         -1.6368246808        2.2136417095       -0.8853984111
 H         -2.8538061407        2.6013908298        0.3426875789
 H         -5.8446906999       -0.8230703705        1.0838032707
 H         -6.4477476203        0.8321137495        1.2351595001
 H         -4.4507826200        0.2749800205        2.6797188401
 H         -4.2275942504        1.6956976101        1.6400232795
 O         -2.9213216298       -1.2745457097        1.5450952806
 C         -1.9180724997       -2.0756602397        1.0316222008
 O         -1.8846998594       -3.2239425895        1.5184803313
 H          1.5544184198       -0.3033215896       -0.3540245904
 C          1.9860330300       -1.1205702593        0.2011108999
 C          1.3176169803       -2.3353814994        0.2638809705
 C          1.8880731606       -3.3800588889        0.9815913509
 C          3.1078263506       -3.2144878584        1.6131250407
 C          3.7796818604       -2.0084369783        1.5369567101
 C          3.2111415201       -0.9535001087        0.8298868497
 N          3.8480414498        0.2904718014        0.7860423891
 S          3.5679214494        1.4298061308       -0.3960691413
 O          3.4222122594        0.8331924902       -1.7026667711
 O          4.6798516693        2.3505277611       -0.2598357319
 C          2.0915156893        2.2945508907        0.0980466185
 C          1.5662278590        3.2026732102       -0.7990549119
 C          0.4804311389        3.9736067402       -0.4192187121
 C         -0.0627202909        3.8218770706        0.8471282681
 C          0.4663781594        2.8958905111        1.7307504484
 C          1.5587831795        2.1277296712        1.3590554586
 H          1.9863511397        1.4009602615        2.0302163689
 H          0.0330316195        2.7668932914        2.7099266485
 H         -0.9071623610        4.4241744706        1.1430016679
 H          0.0598320087        4.6860496498       -1.1110593423
 H          2.0134924989        3.2826790099       -1.7771741120
 H          4.7806298998        0.3345284517        1.1661004290
 H          4.7334851604       -1.8776700079        2.0247708399
 H          3.5422577609       -4.0333111881        2.1662832410
 H          1.3633039308       -4.3216398390        1.0504343514
 C         -0.0011625198       -2.5200736099       -0.4467252592
 H         -0.3772127895       -3.5216070499       -0.1954797587
 C          0.2022723800       -2.4517718505       -1.9483012793
 C          0.6973675702       -3.6674005008       -2.6696757488
 C         -0.7200886499       -3.2138290611       -2.8489774588
 H         -1.0074000501       -2.7675532916       -3.7891917190
 H         -1.5032370797       -3.7958645511       -2.3843614585
 H          1.3890624001       -3.5326368410       -3.4871599389
 H          0.8725053905       -4.5599684805       -2.0879808384
 H          0.5518507998       -1.4869315906       -2.2927187797
 O         -0.4051914404        0.3394652996       -1.2180772804
