  62
        -98.93936150
 C          2.3517521219       -1.2646088187        0.0955439736
 C          3.2952080816       -0.7603782444       -0.8350706611
 C          4.1593252380        0.3440134843       -0.3860363490
 C          4.0031256027        0.8364283090        0.8567651214
 C          4.7466787733        1.9249122397        1.6024527265
 C          5.6879933271        2.8728987016        0.8644843181
 C          4.9953197267        3.8418255676       -0.0935587414
 H          4.4285559627        4.5664699354        0.4966686462
 H          5.7645379205        4.3889580824       -0.6427801370
 C          4.0286734397        3.2076736004       -1.0908133395
 H          3.2037602755        2.7337380140       -0.5538112004
 H          3.5962820648        4.0110650326       -1.6936127564
 C          4.6488046532        2.1918237097       -2.0479667268
 H          5.4906843505        2.6478414300       -2.5724642366
 H          3.8892002074        1.9356320001       -2.7914123795
 C          5.1259032857        0.8796934322       -1.4029524401
 H          6.1170868728        0.9896908784       -0.9699699895
 H          5.1927789237        0.1225949673       -2.1895968312
 H          6.4596610033        2.3097723809        0.3480734864
 H          6.1907334171        3.4702075577        1.6299484959
 H          3.9781761322        2.5111147037        2.1169202118
 H          5.3155419775        1.4108239773        2.3851469800
 O          3.0757802389        0.3241190724        1.7167310891
 C          2.2298759192       -0.7167987756        1.3707294942
 O          1.4478750093       -1.0432959572        2.2866423368
 O          3.4218854933       -1.2265622643       -1.9983994719
 C          1.4517970488       -2.3974840845       -0.3732762785
 C          0.0868950660       -1.8393601409       -0.6962279961
 C         -0.2602588075       -1.5526503439       -2.0122363007
 C         -1.4849930964       -0.9827973280       -2.3106469879
 C         -2.3843736365       -0.6789869905       -1.3039994337
 C         -2.0400147956       -0.9467314689        0.0140258390
 C         -0.8202786704       -1.5376182953        0.3093488184
 H         -0.5527389697       -1.7187633429        1.3391726409
 N         -2.9379528927       -0.6150476594        1.0480758261
 S         -3.4451954651        0.9876765667        1.1108442342
 O         -2.4673125723        1.8787973941        0.5284470864
 O         -3.7939820153        1.2275900885        2.4944061942
 C         -4.9350944135        0.9917956719        0.1341683331
 C         -5.0490691271        1.8405919052       -0.9493394437
 C         -6.2206946799        1.8271952270       -1.6904786244
 C         -7.2517966872        0.9706618575       -1.3362552531
 C         -7.1227041240        0.1265489785       -0.2431500537
 C         -5.9547554092        0.1357548102        0.5023674930
 H         -5.8141882150       -0.4999692202        1.3604589325
 H         -7.9269310014       -0.5376168445        0.0295569427
 H         -8.1614972637        0.9612412643       -1.9155731448
 H         -6.3228479840        2.4829539309       -2.5401615366
 H         -4.2181567872        2.4846229840       -1.1900727551
 H         -2.6039417519       -0.9005020083        1.9585134904
 H         -3.3367745505       -0.2266561366       -1.5276686911
 H         -1.7409240291       -0.7684695621       -3.3370921481
 H          0.4501866015       -1.7629369022       -2.7988398389
 H          1.9011384257       -2.7491921089       -1.3114517144
 C          1.3981387080       -3.5575443984        0.5992851258
 C          0.8954510698       -4.8844675542        0.1174983520
 C          2.3503486478       -4.7010896928        0.4257280672
 H          2.7558873531       -5.1707265874        1.3093429388
 H          3.0454103142       -4.6519037020       -0.3996587515
 H          0.2987720375       -5.4835260949        0.7879856948
 H          0.6029506640       -4.9589796973       -0.9188638453
 H          1.1609903067       -3.2650117147        1.6139009390
