  62
        -98.93570121
 C         -1.6725783833       -0.4186705379       -0.1591507176
 C         -2.7986498329       -1.1921884662        0.2151026254
 C         -4.1313152294       -0.6688120140       -0.1427963675
 C         -4.2086916535        0.5168896180       -0.7742489499
 C         -5.4417618809        1.2672165196       -1.2026858387
 C         -6.1562116731        1.9529020164       -0.0269825367
 C         -6.2975094582        1.0953408965        1.2278619273
 H         -5.3062966344        0.7823595448        1.5608563105
 H         -6.7193030144        1.7263140028        2.0146985226
 C         -7.1954059223       -0.1308262426        1.0809747474
 H         -7.2785512995       -0.5916465070        2.0686035733
 H         -8.1949348148        0.1911541027        0.7802924714
 C         -6.7128972844       -1.2001187176        0.0984383287
 H         -6.9107805722       -0.9072880329       -0.9292404233
 H         -7.3044978519       -2.1016277395        0.2829168061
 C         -5.2496596198       -1.5999683006        0.2596619121
 H         -5.0780664766       -2.5261299746       -0.3023567162
 H         -5.0622673033       -1.8617824439        1.3072190970
 H         -7.1428325013        2.2753989185       -0.3640208393
 H         -5.5833737869        2.8439442900        0.2416588555
 H         -5.1119799045        2.0362554026       -1.9048616589
 H         -6.1178909478        0.6031972452       -1.7331093500
 O         -3.0997510354        1.2474234541       -1.0814375989
 C         -1.8145491917        0.8179489274       -0.7891246480
 O         -0.9267388187        1.6191730654       -1.1349487396
 O         -2.7012565092       -2.2842138996        0.8367816073
 C         -0.3010725680       -0.9613110912        0.2000817773
 C          0.5498106617        0.1149038839        0.8226341001
 C          0.2010208018        0.6052127474        2.0787709533
 C          0.9463426597        1.5994736528        2.6812516342
 C          2.0694859272        2.1107990234        2.0543331010
 C          2.4242311752        1.6304282727        0.8000499915
 C          1.6660104441        0.6390405366        0.1913821106
 H          1.9340174906        0.3199604173       -0.8011226564
 N          3.5553016554        2.1266405018        0.1394532140
 S          4.4693736249        1.1316911168       -0.8356262623
 O          5.7847375034        1.7376623191       -0.8310499385
 O          3.8609780305        0.9749275709       -2.1324162198
 C          4.5252211670       -0.4425525095        0.0050942917
 C          4.9351821788       -0.4754302911        1.3233799941
 C          4.9747140323       -1.6928331786        1.9831768293
 C          4.6098183615       -2.8525978684        1.3166595489
 C          4.2096005250       -2.8049569705       -0.0094491959
 C          4.1648983893       -1.5888687757       -0.6728332882
 H          3.8526002594       -1.5049109728       -1.7016914170
 H          3.9284009262       -3.7080430340       -0.5278401422
 H          4.6378740714       -3.7993856662        1.8324786890
 H          5.2877220247       -1.7338906184        3.0139266371
 H          5.2203847656        0.4411260666        1.8131849053
 H          4.1173925038        2.7783848107        0.6653958873
 H          2.6560004066        2.8861178735        2.5231787816
 H          0.6578259074        1.9757439293        3.6511142246
 H         -0.6741319247        0.2029565218        2.5706953219
 H         -0.5053908751       -1.7214009660        0.9726724884
 C          0.4047479858       -1.6822667725       -0.9381578337
 C         -0.3672466992       -2.4332937818       -1.9798469615
 C          0.3721447831       -1.1842034397       -2.3505685580
 H          1.2697134719       -1.2672721946       -2.9468865651
 H         -0.1936136103       -0.2881797927       -2.5540764497
 H          0.0180687027       -3.3820021743       -2.3215425447
 H         -1.4456143943       -2.3906865009       -1.9314514263
 H          1.3340408263       -2.1360287143       -0.6063236934
