  62
        -98.93899310
 C         -1.8818247128       -0.7787262160       -0.0992338743
 C         -2.4494038894       -0.1388543357        1.0256170111
 C         -3.5349454495        0.8198097438        0.7574863129
 C         -3.8912914958        1.0611545348       -0.5163124716
 C         -5.0005983929        1.9532447955       -1.0003684407
 C         -6.2924637214        1.1449050151       -1.2096598153
 C         -7.1712864277        1.0016634522        0.0324567397
 H         -7.6332853491        1.9652343938        0.2576377106
 H         -7.9742300618        0.3041730853       -0.2168161295
 C         -6.4550929197        0.4977343868        1.2883219312
 H         -5.7822145854       -0.3204074900        1.0251942231
 H         -7.2105791127        0.0904663176        1.9630443254
 C         -5.6770265943        1.5997045361        2.0228625910
 H         -5.9545943258        1.5951426765        3.0789657561
 H         -5.9781836067        2.5703510488        1.6290100920
 C         -4.1469313598        1.4728743367        1.9669232714
 H         -3.7022721346        2.4662816826        2.0908544253
 H         -3.8008236543        0.8694205832        2.8120205393
 H         -6.8852436822        1.6276090472       -1.9892983166
 H         -6.0115057603        0.1552220186       -1.5789212840
 H         -5.1601382479        2.7791777330       -0.3134637700
 H         -4.6802102831        2.3536983569       -1.9645372028
 O         -3.2892263907        0.4532778916       -1.5750258114
 C         -2.2788608713       -0.4781032110       -1.4021909800
 O         -1.8270706755       -0.9506111126       -2.4613581400
 O         -2.0658754057       -0.3588291577        2.2075177104
 C         -0.7744904997       -1.7954831968        0.1120653734
 C          0.4976835427       -1.3125207597       -0.5403093041
 C          1.2739997711       -2.0944091890       -1.3845606675
 C          2.4214142300       -1.5764301890       -1.9616936632
 C          2.8251691724       -0.2804108995       -1.7023187852
 C          2.0691161631        0.5023792103       -0.8376713086
 C          0.9219339865       -0.0185798666       -0.2602523861
 H          0.3315188706        0.5946076543        0.4094860602
 N          2.4795430292        1.8138232667       -0.5494192982
 S          4.1052463684        2.0973398242       -0.2769444917
 O          4.1458347083        3.2528437923        0.5919777402
 O          4.7924625918        2.2359204259       -1.5369605568
 C          4.7037440079        0.6497095452        0.5779643028
 C          5.7244904330       -0.0998588173        0.0297169845
 C          6.1565590078       -1.2345790249        0.6975520784
 C          5.5604710819       -1.5998903484        1.8943327575
 C          4.5386539656       -0.8339006916        2.4346828146
 C          4.1042445913        0.3027006990        1.7725394828
 H          3.3142228800        0.9201925089        2.1695987589
 H          4.0757653998       -1.1188612799        3.3659054234
 H          5.8932317062       -2.4861164317        2.4111179402
 H          6.9522815388       -1.8306426193        0.2808121752
 H          6.1566942970        0.2190172134       -0.9047926582
 H          1.8991723556        2.2918001109        0.1232878000
 H          3.7024733320        0.1430833626       -2.1635680915
 H          3.0070539047       -2.1905230459       -2.6283717423
 H          0.9749660729       -3.1059113366       -1.6032190667
 H         -0.6097124680       -1.8239058218        1.1994400274
 C         -1.2162010098       -3.1678105603       -0.3495636701
 C         -0.6359621440       -4.3979816292        0.2797569508
 C         -2.0525403018       -4.0052194368        0.5695580131
 H         -2.8514210714       -4.5951164907        0.1457725340
 H         -2.2829456906       -3.5955050211        1.5423123459
 H         -0.4629974333       -5.2629103162       -0.3424973882
 H          0.0965133382       -4.2614785671        1.0606095904
 H         -1.4562811570       -3.1944902177       -1.4064413018
