  62
        -98.94051122
 C         -2.3740499255        0.7448118422        0.0988154768
 C         -3.5344097135        1.0345339724       -0.6580581819
 C         -4.8040661197        0.5829895495       -0.0787308443
 C         -4.8080736145       -0.0432047979        1.1123930479
 C         -6.0244749753       -0.5408462822        1.8453590181
 C         -6.5033471124       -1.9269979439        1.3922273723
 C         -7.1756238476       -1.9670055999        0.0193035502
 H         -7.6516524622       -2.9449657125       -0.0756820888
 H         -7.9648333795       -1.2156423814       -0.0196937150
 C         -6.2153249159       -1.7692962396       -1.1618522700
 H         -5.1882585539       -1.9331708408       -0.8271961571
 H         -6.4242037130       -2.5166573022       -1.9306376553
 C         -6.3052570422       -0.3965844762       -1.8286684722
 H         -7.2904640885       -0.2738528275       -2.2838979600
 H         -5.5584883848       -0.3524982781       -2.6256701955
 C         -6.0550308827        0.7832655023       -0.8801752459
 H         -5.9224028572        1.6853914299       -1.4823404451
 H         -6.9112203649        0.9247717251       -0.2211715254
 H         -5.6509634032       -2.6102159816        1.4011023201
 H         -7.2215792301       -2.2818064751        2.1349407095
 H         -5.7476301975       -0.6002930604        2.9000641068
 H         -6.8363117288        0.1791513323        1.7388708474
 O         -3.6709749995       -0.2858280252        1.8180784957
 C         -2.4272578792        0.0812211562        1.3243492364
 O         -1.4713259548       -0.2294316657        2.0602685144
 H          1.6129181736        0.8483225810        0.3411259556
 C          1.2029728594       -0.0138359579       -0.1573575645
 C         -0.1096123733       -0.0194022293       -0.5999756285
 C         -0.5901472591       -1.1590784087       -1.2411595888
 C          0.2190107697       -2.2634460550       -1.4214330913
 C          1.5328376659       -2.2498276189       -0.9862334521
 C          2.0239019550       -1.1171754002       -0.3495783445
 N          3.3471763692       -1.0722814978        0.1174913006
 S          4.1769410969        0.3954540901        0.0267603168
 O          3.8764732428        1.1796239835        1.1979732000
 O          3.9256551546        1.0273933700       -1.2486843406
 C          5.8632513922       -0.1808121548        0.1070100632
 C          6.4076591592       -0.4751985531        1.3429199251
 C          7.7083354825       -0.9492732947        1.4058940503
 C          8.4386520242       -1.1210777804        0.2391615860
 C          7.8795046597       -0.8199650787       -0.9936368147
 C          6.5788639037       -0.3461205788       -1.0639311662
 H          6.1060958635       -0.0900134950       -1.9984512397
 H          8.4508679308       -0.9514520701       -1.8983696900
 H          9.4510897540       -1.4891408840        0.2915356705
 H          8.1474372044       -1.1815067062        2.3626942446
 H          5.8051372995       -0.3170772248        2.2222980145
 H          3.9099157798       -1.8438117151       -0.2137331446
 H          2.1678831112       -3.1104409079       -1.1320262991
 H         -0.1720477580       -3.1406950276       -1.9148516254
 H         -1.6126263538       -1.1658591303       -1.5945436051
 C         -1.0220259018        1.1714991905       -0.4399517083
 H         -1.2216889504        1.5813169140       -1.4422902585
 C         -0.4332174597        2.2693073997        0.4207180762
 C          0.5258264419        3.2585000449       -0.1688685882
 C         -0.8628801177        3.6868247070        0.1961434010
 H         -0.9968882546        4.3272776342        1.0548712795
 H         -1.5677835243        3.8698881361       -0.6016616651
 H          1.3524270845        3.5972760674        0.4383828246
 H          0.7718049741        3.1532679655       -1.2151416877
 H         -0.2692926328        1.9515387771        1.4451723153
 O         -3.5090937677        1.6386129041       -1.7641255091
