  62
        -98.94870681
 C         -1.4431387861       -1.4174214223       -0.3559601511
 C         -0.3228796120       -1.6788192766       -1.1790220928
 C          0.6726799147       -2.6051722432       -0.6303794386
 C          0.5082610275       -3.1022130709        0.6088933009
 C          1.4170627198       -4.0851567209        1.2966225306
 C          2.6405118811       -3.4441710363        1.9646311457
 C          3.7332732629       -2.9762812909        1.0033215611
 H          3.9806452613       -3.7831400480        0.3123231779
 H          4.6226501750       -2.7763716336        1.6045657475
 C          3.3802170354       -1.7071665784        0.2152397791
 H          4.2397474322       -1.0313487078        0.2288939665
 H          2.5573457668       -1.1842889880        0.7110451379
 C          3.0166485860       -1.9441912494       -1.2511283830
 H          3.8947402792       -2.3081084423       -1.7900343019
 H          2.7205437682       -0.9870851550       -1.6877506203
 C          1.8688041554       -2.9363123761       -1.4715926968
 H          2.2050509072       -3.9525621526       -1.2656461855
 H          1.5623120982       -2.8732987166       -2.5188343386
 H          3.0716618297       -4.1879183219        2.6392304746
 H          2.3053255933       -2.5979068124        2.5697945938
 H          1.7452320110       -4.8425080526        0.5835240794
 H          0.8178198528       -4.5713851373        2.0695548124
 O         -0.5545856427       -2.7806633761        1.3926470151
 C         -1.5457712937       -1.9233430735        0.9395217263
 O         -2.4543895144       -1.7092944349        1.7657829893
 O         -0.1701726119       -1.1730575059       -2.3241638273
 C         -2.5318306249       -0.4869456416       -0.8623129986
 C         -2.6039007621        0.7189599729        0.0401034238
 C         -3.7750618988        1.1960272575        0.6120441163
 C         -3.7367036111        2.2738356908        1.4806321909
 C         -2.5403257348        2.8886990946        1.7991039436
 C         -1.3645483633        2.4303645645        1.2131803029
 C         -1.4100215307        1.3714472691        0.3231220879
 H         -0.4958434249        1.0082807748       -0.1237591615
 N         -0.1375172845        3.0513647244        1.4815445328
 S          1.3186747240        2.2673646533        1.2746712678
 O          1.2506734978        0.8658225248        1.6221152085
 O          2.2614714431        3.0532730396        2.0446791001
 C          1.7067947016        2.4628600721       -0.4541422457
 C          2.8276074943        1.8040296075       -0.9190547178
 C          3.1926794641        1.9446048250       -2.2480990095
 C          2.4334189570        2.7432215021       -3.0887998064
 C          1.3154473360        3.4044503235       -2.6060899277
 C          0.9463435917        3.2690679854       -1.2764512052
 H          0.0774978321        3.7688032421       -0.8816265303
 H          0.7253717809        4.0249529282       -3.2613294640
 H          2.7144452856        2.8487701128       -4.1247151489
 H          4.0631516651        1.4289955338       -2.6213914212
 H          3.3866964398        1.1901088380       -0.2314122734
 H         -0.1276941575        3.7132117363        2.2420222528
 H         -2.5100653252        3.7119967383        2.4961503290
 H         -4.6516229518        2.6300655369        1.9292925338
 H         -4.7142841790        0.7149432369        0.3946122151
 H         -2.1960007945       -0.1575710895       -1.8568156920
 C         -3.8457185490       -1.2242977830       -1.0062060369
 C         -4.8632027685       -0.7623044478       -2.0051766788
 C         -4.0954134925       -2.0259357612       -2.2472841043
 H         -4.6098150458       -2.9706556149       -2.1550612968
 H         -3.3238998058       -2.0216062775       -3.0032818370
 H         -5.9091338449       -0.8408593132       -1.7499567541
 H         -4.6178049911        0.1012806277       -2.6042353990
 H         -4.1965340400       -1.6355983901       -0.0663049028
