  62
        -98.94947372
 C         -1.0555292905       -1.6749175401       -0.2714539095
 C         -2.3279874767       -1.4882956010        0.3150916990
 C         -3.0969792147       -0.3401575702       -0.1767832299
 C         -2.5718081286        0.4568426989       -1.1247348920
 C         -3.2275122499        1.6733787186       -1.7204780510
 C         -3.0660193454        2.9422512569       -0.8714328102
 C         -3.9290674182        2.9958042977        0.3895801809
 H         -4.9638468475        2.7616594179        0.1358160898
 H         -3.9051996404        4.0265467002        0.7492822576
 C         -3.4489111505        2.0737912975        1.5191339917
 H         -3.4703261409        2.6199248071        2.4656947659
 H         -2.4057365843        1.7954063537        1.3467972111
 C         -4.2889210354        0.8104334146        1.7101054746
 H         -5.2900097849        1.0865723010        2.0506887682
 H         -3.8217347358        0.2065978774        2.4924668069
 C         -4.4268206195       -0.0614381206        0.4559308362
 H         -5.0962454014        0.4148233549       -0.2604110856
 H         -4.8580787129       -1.0205046600        0.7548049142
 H         -3.3264880386        3.7951067382       -1.5030507278
 H         -2.0167012748        3.0472294729       -0.5827102130
 H         -2.7517716850        1.8413854792       -2.6891366751
 H         -4.2879230858        1.4782516549       -1.8842123244
 O         -1.3541038689        0.2286778830       -1.6834045132
 C         -0.5560555486       -0.8227093333       -1.2565642711
 O          0.5489640306       -0.8950704551       -1.8260968807
 H          0.3021041712       -0.3774415580        1.3211139733
 C          1.2032183680       -0.9681363224        1.2539299904
 C          1.1567550091       -2.2474747220        0.7180853439
 C          2.3350767038       -2.9839391434        0.6691523268
 C          3.5221069888       -2.4422152547        1.1302882564
 C          3.5687872750       -1.1508260136        1.6236798822
 C          2.3962359900       -0.4071111388        1.6769334956
 N          2.3855129207        0.9181048796        2.1511959787
 S          1.5995308290        2.0846797455        1.2486229201
 O          2.1065090210        3.3372120437        1.7748630949
 O          0.1706106161        1.9139602441        1.3292910408
 C          2.1524060266        1.9078532568       -0.4381900579
 C          3.4785999161        1.6230976279       -0.6957334903
 C          3.9011156354        1.5321208317       -2.0113449809
 C          2.9989494630        1.7358729011       -3.0435570644
 C          1.6747510885        2.0336899138       -2.7693083975
 C          1.2469603457        2.1203790678       -1.4550554654
 H          0.2200488885        2.3308277190       -1.2029766988
 H          0.9683944295        2.1857124276       -3.5695498521
 H          3.3283519192        1.6593445806       -4.0678641765
 H          4.9314745028        1.2991291533       -2.2273333642
 H          4.1660891558        1.4741680991        0.1206168413
 H          3.2805565948        1.2602635342        2.4705462025
 H          4.4987969421       -0.7233756171        1.9667352022
 H          4.4273225786       -3.0284640005        1.0902543421
 H          2.3225651321       -3.9837038180        0.2665090782
 C         -0.1644813670       -2.7930515231        0.2310910588
 H         -0.6963994977       -3.2314959432        1.0896881856
 C          0.0005539411       -3.8604145020       -0.8335922829
 C          0.1003140268       -5.3079012888       -0.4569896062
 C         -1.1443923156       -4.7873838438       -1.1082957625
 H         -1.3507028723       -5.0645028335       -2.1311225519
 H         -2.0301743739       -4.6693317000       -0.5011078630
 H          0.0515982261       -5.5582836078        0.5921330634
 H          0.7492120188       -5.9476548594       -1.0360379302
 H          0.5757469903       -3.5092151689       -1.6829815449
 O         -2.7983038843       -2.2449387487        1.2089015460
