  62
        -98.93751426
 C         -1.7931656634       -0.8511776569       -0.6863428413
 C         -2.0265761645       -0.0552515622        0.4586874735
 C         -3.4311723608        0.0639548694        0.8921992263
 C         -4.3861701446       -0.5861686616        0.2047662366
 C         -5.8698822135       -0.5551933011        0.4475857808
 C         -6.5394546628        0.5243311274       -0.4196609164
 C         -6.5755703075        1.9196862716        0.2025887019
 H         -6.9505547138        2.6056854394       -0.5605016453
 H         -7.2910797040        1.9255931613        1.0276073200
 C         -5.2317913499        2.4428057279        0.7168867935
 H         -4.4459927539        2.2103172508       -0.0040152631
 H         -5.2996921231        3.5305000270        0.7817434233
 C         -4.8554910684        1.8860274836        2.0980598651
 H         -4.5923727417        2.7127033407        2.7611517739
 H         -5.7290957020        1.4045539578        2.5372313826
 C         -3.6674863743        0.9121347301        2.1119875500
 H         -2.7367954401        1.4735558943        2.2402261707
 H         -3.7560016366        0.2536782003        2.9825578084
 H         -6.0110225959        0.5604124404       -1.3758065206
 H         -7.5674145823        0.2197156704       -0.6265320782
 H         -6.2553009214       -1.5315542366        0.1463274520
 H         -6.0852847929       -0.4034191218        1.5010326203
 O         -4.1132321875       -1.3545548635       -0.8865700734
 C         -2.8231477919       -1.5063212624       -1.3591924163
 O         -2.7219076069       -2.2411757573       -2.3630572942
 O         -1.1101920757        0.5340502008        1.0886094994
 C         -0.3790941528       -1.0234531563       -1.2097312364
 C          0.5047420056       -1.6096712163       -0.1357464401
 C          0.0549198238       -2.7174543986        0.5786464519
 C          0.8315978658       -3.2790567775        1.5726298500
 C          2.0783416545       -2.7561151770        1.8688844652
 C          2.5418176878       -1.6579023317        1.1555912275
 C          1.7564068641       -1.0938562116        0.1586343273
 H          2.1351632268       -0.2474002614       -0.3879719570
 N          3.7858105326       -1.0887962179        1.4536104177
 S          4.7237019491       -0.3711738067        0.2754130671
 O          4.6557639297       -1.0889088274       -0.9762953899
 O          6.0383674215       -0.2728604386        0.8737556040
 C          4.0513192910        1.2662097825        0.0821999349
 C          3.5575134660        1.9309038456        1.1867874184
 C          3.0628462004        3.2154172497        1.0277049912
 C          3.0766065412        3.8135505406       -0.2230320474
 C          3.5832747888        3.1358174355       -1.3209970906
 C          4.0766332870        1.8495596370       -1.1692806621
 H          4.4699754146        1.2812131720       -1.9974370133
 H          3.5932806006        3.6029252614       -2.2931453163
 H          2.6882852662        4.8126867098       -0.3433269232
 H          2.6638137275        3.7435796654        1.8786967625
 H          3.5533608684        1.4365012357        2.1437288485
 H          4.3352127595       -1.5744516127        2.1464224675
 H          2.6848043794       -3.1918148706        2.6482469457
 H          0.4662688997       -4.1344112848        2.1211327565
 H         -0.9185120448       -3.1284350069        0.3461944607
 H         -0.4440484494       -1.7534675604       -2.0303864194
 C          0.1318825470        0.2899754193       -1.7650106763
 C          1.1499493759        0.3026003420       -2.8639784664
 C         -0.2678130537        0.6935249293       -3.1512170913
 H         -0.4872690905        1.7329067101       -3.3430962406
 H         -0.8879239090        0.0057182072       -3.7080190798
 H          1.9029056341        1.0759907866       -2.8566737179
 H          1.5033264127       -0.6494584255       -3.2309188785
 H          0.1833711162        1.0679247686       -1.0115876101
