  62
        -98.94414756
 C          0.8057782080        1.1977848151        0.2877725728
 C          1.5168933267        0.3812674197        1.2028781745
 C          2.4177245335       -0.6182780738        0.6144004653
 C          2.4479758650       -0.7666652884       -0.7220089561
 C          3.3848257386       -1.6743097219       -1.4636790073
 C          4.6827741558       -0.9401576319       -1.8320265526
 C          5.3236883851       -0.1878469016       -0.6655389179
 H          6.2454866754        0.2645826338       -1.0376527673
 H          4.6658874822        0.6304073615       -0.3631955460
 C          5.6405449598       -1.0605765462        0.5570676189
 H          6.6442787325       -0.8163109231        0.9111897317
 H          5.6461126777       -2.1125815213        0.2699057235
 C          4.6910323041       -0.8639448400        1.7405427984
 H          5.1256732987       -1.3607520486        2.6121112696
 H          4.6148402461        0.2006004780        1.9772964374
 C          3.2735833163       -1.4202914522        1.5535841312
 H          3.3317015450       -2.4618379198        1.2320370404
 H          2.7705465902       -1.3835312122        2.5244676724
 H          4.4603495069       -0.2186079734       -2.6214962045
 H          5.3916194468       -1.6693874478       -2.2283756125
 H          3.6112941834       -2.5416376741       -0.8471113179
 H          2.8944030103       -2.0012401838       -2.3814124153
 O          1.6570564975       -0.0528634008       -1.5600715302
 C          0.8338205289        0.9610560875       -1.0876320715
 O          0.1973342855        1.5475894503       -1.9815712934
 H         -1.6852249570        0.2343832685        0.6989634935
 C         -2.1265688308        1.0934000675        0.2150616826
 C         -1.4228706541        2.2914504929        0.1988076276
 C         -2.0021391172        3.3942343517       -0.4134637476
 C         -3.2516710389        3.2887531365       -0.9998764053
 C         -3.9433613003        2.0925284478       -0.9911053894
 C         -3.3693449139        0.9800369091       -0.3834182469
 N         -4.0182945362       -0.2578263818       -0.4050754850
 S         -3.6345615458       -1.5057265019        0.6193847934
 O         -4.6745385435       -2.4849464598        0.3836501290
 O         -3.4955759255       -1.0601652146        1.9868201249
 C         -2.0891912702       -2.1495924924        0.0142661825
 C         -1.1085294328       -2.5060465369        0.9181133157
 C          0.0667480545       -3.0675492456        0.4473189227
 C          0.2409642593       -3.2604194282       -0.9138730863
 C         -0.7479989902       -2.8863915679       -1.8100159128
 C         -1.9278877387       -2.3291671037       -1.3446329234
 H         -2.7179481712       -2.0308498481       -2.0136533466
 H         -0.6033838199       -3.0272739090       -2.8691171927
 H          1.1536090182       -3.7048525581       -1.2772376176
 H          0.8392243362       -3.3475415186        1.1452404998
 H         -1.2770197263       -2.3281009313        1.9689697606
 H         -4.9617005213       -0.2764610672       -0.7581550418
 H         -4.9124060153        2.0110833551       -1.4589235561
 H         -3.6911827734        4.1517971007       -1.4767756584
 H         -1.4701969272        4.3303188392       -0.4531224483
 C         -0.0660355878        2.3024959600        0.8563569029
 H         -0.2075515608        2.0230609503        1.9148814874
 C          0.5968901155        3.6726948736        0.8538952093
 C          2.0892606163        3.8116473558        0.8511421339
 C          1.2976516726        4.2141888906       -0.3548302363
 H          1.2019220369        5.2673622121       -0.5749607421
 H          1.3347420932        3.5857798406       -1.2307480861
 H          2.5331080973        4.5845335752        1.4607239643
 H          2.6767767098        2.9063885252        0.7992146656
 H          0.0533534548        4.3879096199        1.4637776911
 O          1.4123716085        0.4926223435        2.4543582390
