  62
        -98.93471525
 C         -2.5942625032       -1.2137725129        0.4180835490
 C         -2.4473327468       -0.3873223163       -0.7232359708
 C         -3.2240648202        0.8668095493       -0.7232966375
 C         -3.9967354835        1.1730328511        0.3317165925
 C         -4.8921655240        2.3715057568        0.5196174562
 C         -4.3220299884        3.7427424404        0.1274773066
 C         -2.8031816287        3.8921782670        0.3018180520
 H         -2.4047852225        3.0586104108        0.8835268688
 H         -2.5983798502        4.8054830053        0.8638571070
 C         -2.0541476542        3.9866311047       -1.0301350337
 H         -1.0769972106        4.4431694602       -0.8523231962
 H         -2.6102038870        4.6507519517       -1.6957918416
 C         -1.8024837437        2.6587985690       -1.7449896060
 H         -1.0365756176        2.0878052593       -1.2107026754
 H         -1.3901042866        2.8833428480       -2.7318310477
 C         -3.0332422738        1.7538468960       -1.9193205694
 H         -2.8393912200        1.0883379702       -2.7648548175
 H         -3.9243064332        2.3395450274       -2.1327976742
 H         -4.8321821275        4.4852119977        0.7431444064
 H         -4.5799829691        3.9621783369       -0.9076027024
 H         -5.1481184399        2.3709357323        1.5817377730
 H         -5.8176606780        2.1966307643       -0.0361431464
 O         -4.0844442735        0.3629333962        1.4247032449
 C         -3.3766455986       -0.8243730280        1.5061798762
 O         -3.5186102156       -1.4296170062        2.5881627399
 O         -1.7178481288       -0.6715007499       -1.7064781236
 C         -1.8198819559       -2.5131712175        0.5684283737
 C         -0.3782368186       -2.2784695848        0.1882315030
 C          0.2789587143       -2.9543474791       -0.8300865487
 C          1.5951119507       -2.6510314879       -1.1334166465
 C          2.2827721986       -1.6788409891       -0.4307874833
 C          1.6340455044       -0.9956957316        0.5897695864
 C          0.3188575678       -1.3056863470        0.8951239612
 H         -0.1906524106       -0.7662772842        1.6861736451
 N          2.3257472384       -0.0078225431        1.3168639125
 S          3.0570125645        1.2302980835        0.4448509455
 O          3.1405661229        2.3399854606        1.3708732747
 O          2.3739326357        1.4845309562       -0.8015534150
 C          4.6968331837        0.6101248690        0.1350164612
 C          5.1665814742        0.5208304686       -1.1605283133
 C          6.4475869661        0.0364377798       -1.3763458648
 C          7.2311814732       -0.3471351201       -0.2987662334
 C          6.7451695654       -0.2483854539        0.9966436610
 C          5.4663259584        0.2363414935        1.2193762403
 H          5.0517115931        0.3328636720        2.2088850353
 H          7.3575220695       -0.5474253775        1.8320016321
 H          8.2265305384       -0.7257122936       -0.4696682500
 H          6.8269950065       -0.0407761048       -2.3826001410
 H          4.5178677815        0.8243261532       -1.9669047088
 H          1.7846249375        0.3810195476        2.0761795429
 H          3.3050369915       -1.4358443153       -0.6707502331
 H          2.0916112849       -3.1767968026       -1.9347129953
 H         -0.2482171856       -3.6960314902       -1.4070199812
 H         -1.8488220341       -2.7338628656        1.6487121842
 C         -2.4483377610       -3.7084053055       -0.1309539998
 C         -3.9311628464       -3.7851658258       -0.3367967274
 C         -3.0183915794       -3.6268710926       -1.5136986458
 H         -2.8837876242       -4.4728254933       -2.1719782820
 H         -2.9800699473       -2.6730891041       -2.0148311834
 H         -4.4213549517       -4.7353012331       -0.1864432843
 H         -4.5230214467       -2.9352277668       -0.0284744344
 H         -1.9540082167       -4.6367478995        0.1384188502
