  62
        -98.92997427
 C         -2.9821365388       -0.0214437841       -0.1617806836
 C         -2.5654479375        0.6567037536        1.0154517929
 C         -2.2104279778        2.0776105433        0.8852659262
 C         -2.3835535199        2.6752756468       -0.3073490878
 C         -2.0205545724        4.0925843091       -0.6483761590
 C         -0.5181084661        4.2374395188       -0.9810897048
 C          0.3983631104        3.2196119565       -0.2977839443
 H          0.0042598902        2.2132897203       -0.4592869959
 H          1.3711839745        3.2613500986       -0.7956114049
 C          0.6346795027        3.4345518356        1.2003044806
 H          1.3630015449        4.2407051897        1.3247570920
 H          1.0754952224        2.5183712583        1.6040385886
 C         -0.5941334370        3.8055014092        2.0283009552
 H         -1.0108657152        4.7400547755        1.6590393352
 H         -0.2532028778        3.9941941805        3.0507003480
 C         -1.6796588915        2.7315871916        2.1338724336
 H         -1.3002271634        1.9052825709        2.7449410088
 H         -2.5310383795        3.1539696603        2.6819068138
 H         -0.4006579949        4.1028828231       -2.0581465985
 H         -0.1911337819        5.2468535574       -0.7299738126
 H         -2.6055244342        4.3774281248       -1.5246128822
 H         -2.3112678905        4.7388296866        0.1760646237
 O         -2.8544858508        2.0130890538       -1.3941859538
 C         -3.1178193134        0.6453077305       -1.3780817771
 O         -3.4601811984        0.2025359434       -2.4891924053
 O         -2.4773133332        0.0765161113        2.1314205837
 C         -3.1779886465       -1.5209172300        0.0060062853
 C         -1.8536969703       -2.1401868966        0.3876229728
 C         -1.7748606137       -3.1574571539        1.3301711804
 C         -0.5496960013       -3.6909645229        1.6899431395
 C          0.6211825340       -3.2127864576        1.1297901884
 C          0.5542116133       -2.1873857164        0.1959579783
 C         -0.6773902694       -1.6740477592       -0.1815956608
 H         -0.7240352694       -0.8721479519       -0.9096975490
 N          1.7498181461       -1.6649875114       -0.3551215988
 S          2.7356689829       -0.8851956608        0.7849902251
 O          3.2592733156       -1.8825730316        1.6826685064
 O          2.0227411662        0.2133426904        1.3975114005
 C          4.0384405604       -0.2708259883       -0.2629685039
 C          5.0055020531       -1.1546609409       -0.7018706569
 C          6.0061882304       -0.6884397521       -1.5392552076
 C          6.0219757635        0.6448993158       -1.9216977512
 C          5.0448183200        1.5197729307       -1.4715239454
 C          4.0402527041        1.0595001418       -0.6345688454
 H          3.2635360482        1.7033648098       -0.2526327131
 H          5.0612493899        2.5563439189       -1.7676411621
 H          6.8023548202        1.0058707955       -2.5728215290
 H          6.7694714828       -1.3641333139       -1.8898948598
 H          4.9570140945       -2.1788174534       -0.3715441934
 H          1.5413691038       -0.9950324992       -1.0860540912
 H          1.5837171614       -3.5942952440        1.4278170974
 H         -0.5032450406       -4.4787698043        2.4265804870
 H         -2.6789197236       -3.5100251477        1.8048481904
 H         -3.8496721861       -1.6470403934        0.8719901656
 C         -3.8233239853       -2.2237699605       -1.1760082511
 C         -3.0260418566       -2.9322679750       -2.2255817289
 C         -3.8539007382       -3.7209292773       -1.2579823732
 H         -4.7560964823       -4.1928784584       -1.6159736055
 H         -3.3311258059       -4.2809447091       -0.4979247055
 H         -3.3540857870       -2.8427066318       -3.2494819324
 H         -1.9526911965       -2.9598092723       -2.1127116756
 H         -4.7087692317       -1.7030359906       -1.5208464960
