  62
        -98.94420742
 C         -2.2403944761       -1.1071537492        0.2379999672
 C         -2.3570196049        0.0341897082       -0.5917757982
 C         -3.2137058057        1.1159636011       -0.0816447867
 C         -3.7974474214        0.9918076350        1.1234463676
 C         -4.7252346863        1.9974856633        1.7393612453
 C         -6.1869558906        1.7050361574        1.3722622108
 C         -6.4143905479        1.4727891058       -0.1214048628
 H         -5.9033549993        0.5550757447       -0.4212244309
 H         -7.4841677944        1.3071317417       -0.2652948884
 C         -5.9504121038        2.6266884999       -1.0211481858
 H         -6.7244997521        2.8235371312       -1.7657570212
 H         -5.8323828070        3.5348010241       -0.4287851206
 C         -4.6556141372        2.3515009355       -1.7879852166
 H         -4.5369865219        3.1301515692       -2.5462563380
 H         -4.7350595903        1.3949770738       -2.3106492887
 C         -3.3731148172        2.3351298179       -0.9464885306
 H         -2.5224202460        2.3290970541       -1.6346313899
 H         -3.3151577572        3.2440071249       -0.3437623136
 H         -6.5059236394        0.8095532027        1.9104084908
 H         -6.8008198793        2.5417896373        1.7103926018
 H         -4.6143084810        1.9465504208        2.8238425858
 H         -4.4465817373        2.9943700699        1.4030061356
 O         -3.6401776308       -0.1045839238        1.9067528431
 C         -2.8696070060       -1.1732141391        1.4861361885
 O         -2.8238038770       -2.1182666230        2.2982913941
 H          0.2539781778       -0.6642259259       -1.5019123109
 C          0.7570558691       -1.1309466259       -0.6683538695
 C          0.0587214434       -2.0185356170        0.1378468716
 C          0.7111378315       -2.5763365989        1.2315359565
 C          2.0279569120       -2.2523070116        1.5070936091
 C          2.7179254749       -1.3613131739        0.7041743785
 C          2.0704999030       -0.7900947385       -0.3830218671
 N          2.7551522263        0.1403536612       -1.1907998675
 S          3.3720982120        1.4917264491       -0.4014249875
 O          2.6195806259        1.7976304117        0.7943382671
 O          3.4362867428        2.5306538603       -1.4065168326
 C          5.0306012034        1.0041192392        0.0272449672
 C          5.8703962027        0.5939488441       -0.9899091368
 C          7.1666647003        0.2179941447       -0.6764166932
 C          7.5996846437        0.2610236465        0.6406580719
 C          6.7453022394        0.6779288393        1.6498485682
 C          5.4466923966        1.0543539291        1.3431002502
 H          4.7447317377        1.3800364355        2.0943148029
 H          7.0835282441        0.7109772382        2.6730948299
 H          8.6091067876       -0.0321931334        0.8823203946
 H          7.8342446066       -0.1064455120       -1.4583094847
 H          5.4946526752        0.5793239347       -1.9993320673
 H          2.2100054265        0.4344579574       -1.9899399700
 H          3.7404675089       -1.0964435302        0.9192785423
 H          2.5210569368       -2.6942010252        2.3595603530
 H          0.1687691824       -3.2507639276        1.8785730218
 C         -1.3967241614       -2.3214427173       -0.1274993827
 H         -1.7051694174       -3.1137535987        0.5671986145
 C         -1.6345434946       -2.8077462959       -1.5430020435
 C         -1.2642360832       -4.2154915067       -1.8967720615
 C         -2.7069273457       -3.8227653673       -1.7951317061
 H         -3.2875646946       -3.7434043585       -2.7020238421
 H         -3.2734077116       -4.1733654121       -0.9444394698
 H         -0.8518474694       -4.4090683569       -2.8749692567
 H         -0.8523311388       -4.8345383573       -1.1142364920
 H         -1.4924816530       -2.0437556160       -2.2954231293
 O         -1.7885232746        0.1687997025       -1.7094228948
