  62
        -98.94464474
 C          1.6888161503        1.4093935844        0.1901256492
 C          1.6375734426        0.3384159030       -0.7354813162
 C          2.9387738884       -0.1930524529       -1.1702870309
 C          4.0713107652        0.3546962591       -0.6940670715
 C          5.4572215437       -0.1285223193       -1.0067143873
 C          5.9257163446       -1.1674838226        0.0216992250
 C          4.9114945516       -2.2819020923        0.2807224803
 H          5.3618085097       -2.9714176518        0.9981913222
 H          4.0251168528       -1.8570623167        0.7581661642
 C          4.4859398952       -3.0572633144       -0.9739715653
 H          5.2098507053       -2.8945166081       -1.7734005328
 H          4.4908644161       -4.1248988746       -0.7442406271
 C          3.0837684006       -2.7199706924       -1.4851283287
 H          2.3631242657       -2.7961504057       -0.6659270360
 H          2.8050914294       -3.4692627608       -2.2313143655
 C          2.9252189399       -1.3415899565       -2.1391937079
 H          1.9432195351       -1.3172943534       -2.6207186236
 H          3.6893128000       -1.2087967690       -2.9079026078
 H          6.1200057746       -0.6559517234        0.9672152111
 H          6.8636349193       -1.6020492927       -0.3286214560
 H          5.4701656560       -0.5591881147       -2.0058958750
 H          6.1342969292        0.7268686174       -0.9798609826
 O          4.0799933848        1.3935165890        0.1793914524
 C          2.8966972730        1.9295351858        0.6584797710
 O          3.0488449613        2.8553506639        1.4809679794
 O          0.5695308193       -0.1499419373       -1.1870118130
 C          0.4117007197        2.0097334230        0.7567401761
 C         -0.2473115253        0.9738590600        1.6359637945
 C          0.4040145517        0.5731428568        2.8007382607
 C         -0.1507045720       -0.3871393004        3.6236754581
 C         -1.3564800114       -0.9829278195        3.2921112762
 C         -2.0100859622       -0.5966757652        2.1300405338
 C         -1.4620782695        0.3894622769        1.3198186960
 H         -1.9891072062        0.6897760084        0.4323093362
 N         -3.2421879602       -1.1676690182        1.7591920845
 S         -3.3373132525       -1.8887392939        0.2388394381
 O         -4.5054037630       -2.7419489798        0.3266227275
 O         -2.1008363520       -2.5512187612       -0.1030923904
 C         -3.6914913238       -0.5513551471       -0.8791217751
 C         -2.7647727000       -0.1814311433       -1.8338097634
 C         -3.0752840590        0.8645673813       -2.6897027714
 C         -4.2941862831        1.5156836687       -2.5765958465
 C         -5.2130233450        1.1287225022       -1.6122100786
 C         -4.9121159272        0.0831965412       -0.7545911539
 H         -5.5981323887       -0.2553956654        0.0038409286
 H         -6.1585611133        1.6394597281       -1.5263176540
 H         -4.5268328439        2.3308449004       -3.2439053109
 H         -2.3570985456        1.1687817731       -3.4349844671
 H         -1.8119704648       -0.6872288881       -1.8689755214
 H         -3.6236671808       -1.7960343379        2.4532895536
 H         -1.7853205557       -1.7435503817        3.9276520449
 H          0.3623290212       -0.6836498987        4.5264736330
 H          1.3532911396        1.0287471525        3.0492987802
 H          0.7304938604        2.8424955594        1.3993190628
 C         -0.4847061913        2.5474183463       -0.3377513904
 C         -1.5847609762        3.5051769387        0.0054976265
 C         -0.3757797509        3.9865283823       -0.7377293996
 H         -0.4772374210        4.2392849566       -1.7822429671
 H          0.3405361969        4.5987579056       -0.2091076601
 H         -2.5196883047        3.4249220707       -0.5282644666
 H         -1.6902382516        3.7925349903        1.0406372159
 H         -0.6690812758        1.8269368296       -1.1245637620
