  62
        -98.93889668
 C         -2.3998719349       -1.1990135394       -0.0482922611
 C         -3.0946321462       -0.4769360007        0.9560436452
 C         -3.7208885935        0.7936482224        0.5568231399
 C         -3.6090719831        1.1983087735       -0.7198390347
 C         -4.1046282211        2.4833606284       -1.3227056940
 C         -2.9988173948        3.5526979347       -1.2974641742
 C         -2.9322183272        4.3793033420       -0.0138933292
 H         -2.0370683009        5.0023508954       -0.0775026600
 H         -3.7957871185        5.0465521590        0.0284249106
 C         -2.8741366530        3.5685367090        1.2834873713
 H         -2.1826438742        2.7319923398        1.1612195843
 H         -2.4622444337        4.2138743697        2.0618316158
 C         -4.2492578510        3.0567202977        1.7383817671
 H         -5.0244598538        3.5648723792        1.1652198335
 H         -4.4073235433        3.3295522385        2.7837006542
 C         -4.4489903647        1.5369337388        1.6433393656
 H         -4.1116693077        1.0670271810        2.5723146063
 H         -5.5191889142        1.3228025533        1.5549955688
 H         -2.0401716419        3.0514906495       -1.4608090668
 H         -3.1539617495        4.2378626400       -2.1335864066
 H         -4.3532144086        2.2644964666       -2.3632655084
 H         -4.9987162941        2.8300357705       -0.8130835431
 O         -2.9475829721        0.4699364950       -1.6585065101
 C         -2.3129382683       -0.7220346629       -1.3555760899
 O         -1.7351677955       -1.2354495130       -2.3366608785
 O         -3.1846398726       -0.8810592772        2.1462988064
 C         -1.7071078026       -2.4798844702        0.3926715669
 C         -0.2515147483       -2.1783818955        0.6575471832
 C          0.2571259442       -2.1766147129        1.9511247477
 C          1.5730340525       -1.8210576210        2.1916222700
 C          2.4028149961       -1.4450657741        1.1500458985
 C          1.9004525230       -1.4380973287       -0.1441443220
 C          0.5915863564       -1.8213138247       -0.3857425471
 H          0.2064052846       -1.7925104569       -1.3945062608
 N          2.7265309952       -0.9940653415       -1.2063903518
 S          2.9652860560        0.6767894926       -1.1902841980
 O          1.8254816221        1.3683145888       -0.6278838125
 O          3.3309917159        1.0344558988       -2.5437429434
 C          4.3816958773        0.8718102206       -0.1299290641
 C          5.5828729373        0.3301800577       -0.5450068737
 C          6.6934310356        0.4610004047        0.2732702743
 C          6.5844142945        1.1277786300        1.4848353245
 C          5.3720222499        1.6683471978        1.8853678629
 C          4.2567553358        1.5404014711        1.0717582426
 H          3.2917013812        1.9378674892        1.3428395277
 H          5.2889924332        2.1864795823        2.8271934603
 H          7.4496980604        1.2272413061        2.1209770637
 H          7.6380327947        0.0426934795       -0.0347154096
 H          5.6215204413       -0.1752515046       -1.4954459210
 H          2.3479674228       -1.2472770692       -2.1101010184
 H          3.4246943223       -1.1532623864        1.3301331750
 H          1.9533840521       -1.8256959545        3.2015736721
 H         -0.3962632480       -2.4328705378        2.7723472937
 H         -2.1752037063       -2.7458104445        1.3497369100
 C         -1.8846715331       -3.6380812405       -0.5669827533
 C         -1.6777269855       -5.0337450025       -0.0622617593
 C         -3.0575251809       -4.5545956283       -0.3971810795
 H         -3.5401150128       -4.9402105109       -1.2826096173
 H         -3.7383489369       -4.3489481831        0.4158791448
 H         -1.2101880861       -5.7530915468       -0.7167266803
 H         -1.4232682072       -5.1549638479        0.9796629774
 H         -1.5744843655       -3.4158741770       -1.5794712851
