  62
        -98.93867572
 C         -1.5293291605       -1.6529353745       -0.1348091090
 C         -2.7480305783       -1.3857599333        0.5472375250
 C         -3.6033491872       -0.3400895509       -0.0207155453
 C         -3.2217881906        0.2926812022       -1.1441329912
 C         -3.9901343858        1.3697332748       -1.8613153471
 C         -3.7828054492        2.7808974706       -1.2936046407
 C         -4.4349354881        3.0411607556        0.0646452686
 H         -4.3878506647        4.1176630713        0.2409508391
 H         -5.4893157895        2.7669093579        0.0183355928
 C         -3.7636980341        2.3164102358        1.2400169885
 H         -2.7692184195        1.9760556384        0.9424525020
 H         -3.6300188472        3.0134095477        2.0702112571
 C         -4.5517265579        1.1211645861        1.7761422741
 H         -5.4998718009        1.4639268989        2.1964320389
 H         -3.9728802592        0.6617155752        2.5813199929
 C         -4.8448540052        0.0398121273        0.7276641068
 H         -5.6156777117        0.3826658283        0.0376094108
 H         -5.2091283797       -0.8511691938        1.2448042267
 H         -4.2040840849        3.4848018728       -2.0151614403
 H         -2.7112887978        2.9796228272       -1.2253392850
 H         -3.6442459629        1.3618815256       -2.8974763439
 H         -5.0530981087        1.1263390971       -1.8504120209
 O         -2.0650421571       -0.0089182617       -1.7861853299
 C         -1.1818871556       -0.9681171230       -1.3003338675
 O         -0.1640635122       -1.0886310836       -2.0057827632
 O         -3.1050490889       -1.9987646180        1.5882233090
 C         -0.6136549805       -2.6892239922        0.5091627972
 C          0.6651217536       -2.0180744926        0.9425340901
 C          0.7624226389       -1.5710286936        2.2594185162
 C          1.8609672503       -0.8525018343        2.6936966302
 C          2.8888636904       -0.5444087890        1.8199653460
 C          2.8014374860       -0.9797768625        0.5054814124
 C          1.7104732225       -1.7246837215        0.0791699335
 H          1.6614017313       -2.0214749959       -0.9539900838
 N          3.8112061103       -0.6224714787       -0.4106609935
 S          4.1773293106        1.0117478211       -0.4670418769
 O          4.6209832207        1.2660938876       -1.8198223525
 O          5.1333785248        1.3192166019        0.5687779980
 C          2.6448284798        1.8672607666       -0.1341840447
 C          2.5759330889        2.7576684611        0.9184159805
 C          1.3778505217        3.4045782713        1.1744368295
 C          0.2712777720        3.1495446267        0.3790888759
 C          0.3583190923        2.2545437872       -0.6754309550
 C          1.5535649629        1.6055605755       -0.9380210659
 H          1.6247585708        0.8960906722       -1.7473787761
 H         -0.4976771932        2.0395372744       -1.2962323784
 H         -0.6635666429        3.6491637785        0.5823116661
 H          1.3078017218        4.1012385630        1.9941465577
 H          3.4582975923        2.9218220326        1.5154330830
 H          3.6369122146       -0.9703912135       -1.3432746644
 H          3.7454328746        0.0325492173        2.1289810687
 H          1.9133340682       -0.5188591265        3.7186221730
 H         -0.0484257639       -1.7796582480        2.9428143271
 H         -1.1479765813       -2.9557311120        1.4339261450
 C         -0.5238218858       -3.9931221556       -0.2749170209
 C          0.1287600518       -4.1862194682       -1.6101935159
 C          0.7355416870       -4.7995338351       -0.3853949122
 H          0.6713322627       -5.8705323662       -0.2637462869
 H          1.6444800021       -4.3668477362        0.0036241951
 H         -0.3713030979       -4.8384916869       -2.3127281204
 H          0.6059230877       -3.3459225373       -2.0847861172
 H         -1.4383961355       -4.5648070928       -0.1379509110
