  62
        -98.93181855
 C         -2.1970941670       -0.7934859851        0.0392751355
 C         -3.5278989453       -1.2244193320        0.2651166152
 C         -4.6061907576       -0.3887050469       -0.2905963087
 C         -4.2891649191        0.7463818797       -0.9403895015
 C         -5.1567015342        1.7652662183       -1.6497950052
 C         -6.6682151270        1.7870831774       -1.4372315080
 C         -7.1102555721        2.1947294473       -0.0321498994
 H         -8.1939959278        2.0764125782        0.0328518964
 H         -6.8818842472        3.2540945141        0.1095775232
 C         -6.4567366317        1.4261797388        1.1136623886
 H         -6.8549253982        1.8225542090        2.0516773648
 H         -5.3812637008        1.6159800887        1.1160278796
 C         -6.6950671787       -0.0825109582        1.1091356628
 H         -7.7669862758       -0.2853610718        1.0704120878
 H         -6.3133604358       -0.4786923136        2.0539111659
 C         -6.0079486171       -0.8590772966       -0.0274823748
 H         -6.5992970308       -0.8316531696       -0.9395854176
 H         -5.9270379652       -1.9055995771        0.2804114383
 H         -7.1004133445        0.8290324533       -1.7105966806
 H         -7.0691042111        2.5260061479       -2.1363908188
 H         -4.9590475898        1.6278996871       -2.7188315367
 H         -4.7426025028        2.7434099648       -1.3850931445
 O         -2.9925401827        1.1446454370       -1.0960103435
 C         -1.9203835464        0.4076363240       -0.6118316008
 O         -0.8135161515        0.9384787190       -0.8232763981
 O         -3.8076411972       -2.2733014211        0.9043452161
 C         -1.0751666785       -1.6570697255        0.5862263493
 C         -0.0529663797       -0.8049428881        1.2948884514
 C         -0.4430446330       -0.1079958884        2.4356223989
 C          0.4507607024        0.7027695078        3.1066246871
 C          1.7515902077        0.8336708307        2.6540030103
 C          2.1549749196        0.1351899392        1.5220812603
 C          1.2556862759       -0.6849341160        0.8546564769
 H          1.5811301019       -1.1936558114       -0.0359429953
 N          3.4917489331        0.2191512424        1.0866578120
 S          3.8872552677        0.3077610875       -0.5517636167
 O          3.3836547553        1.5326582365       -1.1336954203
 O          3.5198275868       -0.9220199239       -1.2043326923
 C          5.6642191177        0.3954811338       -0.4056824257
 C          6.2987973305        1.6199444117       -0.4912182129
 C          7.6763735382        1.6738878609       -0.3465330612
 C          8.3922230685        0.5088057826       -0.1168665024
 C          7.7418186908       -0.7135939550       -0.0351910310
 C          6.3650710225       -0.7739461397       -0.1800934028
 H          5.8177375723       -1.7007409328       -0.1324499404
 H          8.3019476865       -1.6178802809        0.1403207971
 H          9.4639222898        0.5534239017       -0.0040370863
 H          8.1847332888        2.6222793271       -0.4134876218
 H          5.7024751578        2.4982476936       -0.6801721872
 H          3.9986264984        0.9429602477        1.5803756730
 H          2.4490606335        1.4744543017        3.1726426994
 H          0.1325431792        1.2442068324        3.9850771254
 H         -1.4643835660       -0.2009052059        2.7803588054
 H         -1.5649019618       -2.2970781379        1.3397319083
 C         -0.4591675863       -2.5927580205       -0.4426909402
 C         -1.2590581509       -3.1213048122       -1.5944208419
 C         -0.1431043665       -2.1524779985       -1.8393538289
 H          0.7697822384       -2.5097464701       -2.2941124502
 H         -0.3864815558       -1.1366665974       -2.1110118211
 H         -1.1203677798       -4.1516567729       -1.8851354555
 H         -2.2739223821       -2.7674850406       -1.7040487462
 H          0.2408938976       -3.2872442508        0.0125018627
