  62
        -98.93555261
 C         -1.4930858996       -1.3672154696        0.2755199206
 C         -2.1558051804       -0.8265856787       -0.8518553985
 C         -3.1522044301        0.2227839611       -0.5735992669
 C         -3.3960772891        0.5870155302        0.6968763136
 C         -4.3846740487        1.6107117999        1.1947072651
 C         -4.4122867091        2.9666569204        0.4712266361
 C         -3.0777477096        3.4055087008       -0.1500241246
 H         -2.2647482194        2.7804377205        0.2241409843
 H         -2.8654030893        4.4315729906        0.1565958760
 C         -3.0904346808        3.3702587819       -1.6808893746
 H         -2.2955879411        4.0213272922       -2.0538836247
 H         -4.0392392811        3.7838007323       -2.0296711336
 C         -2.8835937514        1.9950953424       -2.3166068058
 H         -1.8442548513        1.6774989522       -2.1908320768
 H         -3.0555616122        2.0934324732       -3.3911917656
 C         -3.7798824610        0.8700275720       -1.7738805259
 H         -3.8435233117        0.0937533826       -2.5411936664
 H         -4.7822963609        1.2331129920       -1.5601092549
 H         -4.7326481585        3.7102598699        1.2026425469
 H         -5.1723693398        2.9471749310       -0.3087589233
 H         -5.3835128587        1.1670858200        1.1611135956
 H         -4.1331763078        1.7613902291        2.2469299050
 O         -2.7531718583        0.0183013894        1.7548920826
 C         -1.7807172685       -0.9526057406        1.5748131412
 O         -1.2540152777       -1.3566598414        2.6293420604
 H          0.3554301601        0.1521533707       -0.2738663597
 C          1.0018038596       -0.5401368090       -0.8001790507
 C          0.7329272396       -1.9003883190       -0.7431844615
 C          1.5879755490       -2.7641930986       -1.4196960228
 C          2.6738542185       -2.2781863981       -2.1270104033
 C          2.9336416085       -0.9199913381       -2.1814124025
 C          2.0808541391       -0.0499567285       -1.5200623812
 N          2.3645476092        1.3411621415       -1.5384656504
 S          3.5209030201        1.7768142405       -0.4023055410
 O          3.5348938302        3.2214010305       -0.3750939799
 O          4.7590231298        1.1266252907       -0.7438401024
 C          2.8778003713        1.1287555395        1.1289416890
 C          3.1535243914       -0.1805191908        1.4689029879
 C          2.5350794923       -0.7262719316        2.5822226879
 C          1.6513367429        0.0376720179        3.3283841592
 C          1.3893458127        1.3528094482        2.9760491404
 C          2.0004269419        1.9035493490        1.8612920403
 H          1.8174308617        2.9202664492        1.5498518912
 H          0.6978959432        1.9412692078        3.5580974014
 H          1.1489330235       -0.3987214927        4.1767202693
 H          2.7307458724       -1.7501964818        2.8570233170
 H          3.8411629109       -0.7448705204        0.8598466569
 H          1.5423403093        1.9085458414       -1.3828259093
 H          3.7835154281       -0.5221331178       -2.7110298729
 H          3.3275387480       -2.9656958478       -2.6415182244
 H          1.4027772390       -3.8256966586       -1.3873110035
 C         -0.4132939498       -2.4136527596        0.0969293390
 H         -0.0197842690       -2.6150413003        1.1050475885
 C         -1.0078528603       -3.6954729991       -0.4567745915
 C         -0.5125772800       -5.0319842295        0.0059398671
 C         -1.8592588797       -4.5406500297        0.4411616386
 H         -2.7415338700       -5.0065694094        0.0287397889
 H         -1.9778554988       -4.2099759905        1.4630707289
 H          0.2763760505       -5.0496310101        0.7427635765
 H         -0.4710081506       -5.8411323490       -0.7077878435
 H         -1.3194828811       -3.5940932683       -1.4898870112
 O         -1.9262053614       -1.1914955679       -2.0339851589
