  62
        -98.94787124
 C          1.1176519629        1.1513548506        0.0374124106
 C          1.5789260557        0.1340075271        0.9052361516
 C          2.5094266860       -0.8396823760        0.3201942684
 C          2.8421354859       -0.7317701369       -0.9790885053
 C          3.8062061040       -1.6332990319       -1.6934174921
 C          5.2387485534       -1.0858780292       -1.6246979836
 C          5.6806907658       -0.6896574292       -0.2159256978
 H          5.0810974420        0.1599384281        0.1185007372
 H          6.7153203867       -0.3468934925       -0.2840943712
 C          5.5823756251       -1.8182258774        0.8198851158
 H          6.4975469907       -1.8277945565        1.4155570665
 H          5.5158140111       -2.7814117985        0.3126121107
 C          4.4150350112       -1.6797819926        1.7985537154
 H          4.4246756161       -0.6800705344        2.2397466129
 H          4.5644270304       -2.3979938891        2.6090677845
 C          3.0194993990       -1.9346813958        1.2148308242
 H          2.3159508955       -1.9900462391        2.0511404154
 H          3.0054759528       -2.8944783388        0.6931478036
 H          5.3019340220       -0.2034091073       -2.2655911654
 H          5.9164136987       -1.8437071271       -2.0221793927
 H          3.4989777141       -1.7019310834       -2.7386468436
 H          3.7618322581       -2.6265392996       -1.2501302611
 O          2.3685248309        0.2503680375       -1.7871101095
 C          1.4910355506        1.2116515891       -1.3053058038
 O          1.1281964845        2.0476280814       -2.1548795472
 O          1.2235050040        0.0401277825        2.1113982277
 C          0.1304836945        2.1715364061        0.5672365384
 C         -1.1941402873        2.0878244767       -0.1544946751
 C         -2.0465730597        3.1798618662       -0.2752024171
 C         -3.2679877322        3.0482473018       -0.9121636685
 C         -3.6761419306        1.8301868065       -1.4250588561
 C         -2.8321927600        0.7316442030       -1.3084897536
 C         -1.6066316571        0.8704898972       -0.6766887504
 H         -0.9496322582        0.0170165048       -0.6223629180
 N         -3.1989976311       -0.5186960738       -1.8222700887
 S         -2.6173218834       -1.9315688370       -1.1552070163
 O         -1.2354060264       -2.1342034196       -1.5156994232
 O         -3.5431034629       -2.9432127198       -1.6201739846
 C         -2.7845373329       -1.7260003682        0.6084416584
 C         -4.0556261997       -1.5696992885        1.1268792599
 C         -4.2033435648       -1.3664527534        2.4888629081
 C         -3.0831822427       -1.3142010177        3.3054073321
 C         -1.8151671288       -1.4805494196        2.7716442200
 C         -1.6636162192       -1.6933119874        1.4109509775
 H         -0.6881276011       -1.8198123198        0.9672217008
 H         -0.9348300157       -1.4248416640        3.3920817303
 H         -3.1972288274       -1.1437596819        4.3643329295
 H         -5.1883363188       -1.2427954368        2.9091963019
 H         -4.9031272731       -1.6201709924        0.4629634900
 H         -4.1503171037       -0.5981265036       -2.1474286343
 H         -4.6291228785        1.7295714404       -1.9209051462
 H         -3.9159175270        3.9063512624       -1.0055266225
 H         -1.7494558329        4.1358651298        0.1239090510
 H         -0.0443399613        1.8884781125        1.6172726856
 C          0.7307194412        3.5637248304        0.5341592435
 C          0.4254990326        4.5548695395        1.6164238108
 C          1.7807179749        3.9208188359        1.5423210808
 H          2.6196744019        4.5210584674        1.2236094464
 H          2.0353711569        3.1703779963        2.2766505482
 H          0.3348733046        5.5969870847        1.3490428369
 H         -0.2324603381        4.2418540362        2.4129758821
 H          0.8635185887        3.9318564068       -0.4769876767
