  62
        -98.93947674
 C         -2.6376433153       -1.2345160280        0.2336891921
 C         -2.4681729513       -0.1813249334       -0.6994805425
 C         -3.6230478961        0.7167822377       -0.8673187765
 C         -4.7457529904        0.4967624931       -0.1612797463
 C         -5.9694989590        1.3644667974       -0.1986445105
 C         -5.9080727800        2.4554673509        0.8796903889
 C         -4.5876202447        3.2255879559        0.9057862203
 H         -4.6716621939        3.9873496635        1.6839635740
 H         -3.7845952843        2.5480986990        1.2055370672
 C         -4.2150355419        3.8933706542       -0.4252746177
 H         -3.8696452409        4.9092161978       -0.2221161281
 H         -5.0985789769        3.9727315981       -1.0597789169
 C         -3.0977463411        3.1896323144       -1.1979418688
 H         -2.7674414345        3.8558207747       -1.9993388002
 H         -2.2426516658        3.0231171779       -0.5376986186
 C         -3.4745321570        1.8500341395       -1.8431059455
 H         -4.3823216203        1.9692689167       -2.4381014453
 H         -2.6583074900        1.5638490782       -2.5129262071
 H         -6.0493808676        1.9854849550        1.8557910286
 H         -6.7335855693        3.1503211470        0.7148876818
 H         -6.0579416810        1.8172024190       -1.1842712679
 H         -6.8430969395        0.7358900137       -0.0175826889
 O         -4.8739574747       -0.5281174287        0.7200763272
 C         -3.8224143444       -1.3973336892        0.9572141531
 O         -4.0608518485       -2.2611999588        1.8249167604
 H          0.7674805679       -2.1632299958       -0.9906271648
 C          0.8428244941       -1.5464048681       -0.1086973620
 C         -0.2290072231       -1.4592789024        0.7640377223
 C         -0.1138473081       -0.6336925968        1.8791594835
 C          1.0407390731        0.0898916279        2.1065118603
 C          2.1046350582        0.0106323832        1.2247129768
 C          2.0010116099       -0.8101799475        0.1105459394
 N          3.0599283297       -0.8738750051       -0.8058149713
 S          4.6399129790       -0.9546274262       -0.2681322775
 O          5.3827323103       -1.5271693004       -1.3698726846
 O          4.7376080878       -1.6479467324        0.9958563650
 C          5.1204093799        0.7485878549       -0.0690394495
 C          5.7444171844        1.1539926247        1.0944439466
 C          6.1277140557        2.4799979128        1.2230012782
 C          5.8829299122        3.3720940232        0.1904285470
 C          5.2568092857        2.9486808332       -0.9725169656
 C          4.8724010048        1.6242988942       -1.1078292970
 H          4.3827035655        1.2585481267       -1.9949906929
 H          5.0659848271        3.6455495613       -1.7728173693
 H          6.1806854767        4.4037203777        0.2926538611
 H          6.6143003466        2.8112396085        2.1263478152
 H          5.9081646138        0.4271732459        1.8741924003
 H          2.8933034726       -1.4742049443       -1.5991191067
 H          3.0064603317        0.5762401965        1.3933266350
 H          1.1134937876        0.7270103831        2.9750824113
 H         -0.9492505271       -0.5627735131        2.5632172680
 C         -1.5188579969       -2.2128738772        0.5528370870
 H         -1.8047746927       -2.6634549670        1.5175517179
 C         -1.3891205277       -3.3633033965       -0.4342540678
 C         -2.6011076152       -3.9371419013       -1.1038735662
 C         -1.5810837252       -3.1939412571       -1.9103480255
 H         -0.9460869972       -3.7609517482       -2.5761464238
 H         -1.8276660909       -2.2098461759       -2.2755150440
 H         -2.6676333265       -5.0089671492       -1.2152082892
 H         -3.5503132165       -3.4587373373       -0.9106135181
 H         -0.6314652158       -4.0760115348       -0.1206165293
 O         -1.4202080198        0.0124895783       -1.3666573983
