  62
        -98.94165165
 C         -1.7061031249       -0.4811196798       -0.2617453622
 C         -2.8237083637       -1.2870201627        0.0780387773
 C         -4.1433671269       -0.7675220447       -0.3027461591
 C         -4.2245639533        0.4228436201       -0.9237672201
 C         -5.5047893125        1.0955382122       -1.3248574332
 C         -6.0195319666        2.0199143922       -0.2126441037
 C         -6.0590649682        1.3634038564        1.1673350837
 H         -5.0372656429        1.1477301850        1.4879949442
 H         -6.4660035294        2.0984337154        1.8651494386
 C         -6.8938712151        0.0768924196        1.2349945033
 H         -7.5153017235        0.1099119765        2.1323834848
 H         -7.5661440733        0.0261164463        0.3777340565
 C         -6.0708259541       -1.2104469594        1.3103490667
 H         -5.3314726385       -1.1261926541        2.1106916638
 H         -6.7451191169       -2.0298531785        1.5730825189
 C         -5.3421975907       -1.6137702366        0.0222099946
 H         -6.0464904419       -1.6200972220       -0.8122666004
 H         -4.9630880705       -2.6305794381        0.1603188829
 H         -5.3647805262        2.8927863922       -0.1579097572
 H         -7.0198711179        2.3622427414       -0.4840054028
 H         -5.3148745693        1.6900324770       -2.2202045479
 H         -6.2504653975        0.3371041233       -1.5557427381
 O         -3.1365167601        1.1787764015       -1.2136613680
 C         -1.8513595094        0.7609013361       -0.8820043598
 O         -0.9664256671        1.5794366123       -1.1912371553
 O         -2.7208261089       -2.3904958782        0.6766798616
 C         -0.3321823345       -1.0017662712        0.1217463973
 C          0.4841952043        0.0802650957        0.7795698225
 C          0.0961449485        0.5473044063        2.0330549601
 C          0.8097307344        1.5449209501        2.6675947256
 C          1.9396506791        2.0829140209        2.0762049585
 C          2.3333986672        1.6259880445        0.8247884974
 C          1.6069189286        0.6312559007        0.1837744912
 H          1.9045973376        0.3306370774       -0.8060195578
 N          3.4722062216        2.1495009307        0.1996738719
 S          4.4259021384        1.1838723161       -0.7671451581
 O          5.7310258777        1.8098194430       -0.7200118420
 O          3.8523404945        1.0384376227       -2.0810164240
 C          4.4854398864       -0.4025770916        0.0500975536
 C          4.1619379450       -1.5433119210       -0.6552870709
 C          4.2090708164       -2.7691945537       -0.0103532365
 C          4.5748866317       -2.8320177638        1.3250263651
 C          4.9034266968       -1.6776445142        2.0192294912
 C          4.8613143295       -0.4504027453        1.3780587433
 H          5.1184957202        0.4624703612        1.8897944986
 H          5.1899237718       -1.7306141320        3.0571280988
 H          4.6048211521       -3.7864829696        1.8263709619
 H          3.9562847403       -3.6680517994       -0.5502526170
 H          3.8753683993       -1.4476482876       -1.6905983289
 H          4.0107633227        2.8019965147        0.7487529010
 H          2.5015058150        2.8607768034        2.5703432222
 H          0.4911526363        1.9028367994        3.6350041403
 H         -0.7839983778        0.1238616571        2.4976069767
 H         -0.5389169641       -1.7768260937        0.8786975562
 C          0.4136486613       -1.6934747567       -1.0092224781
 C         -0.3188022622       -2.4448516307       -2.0788767829
 C          0.4052465096       -1.1772416353       -2.4154445122
 H          1.3183843088       -1.2352316524       -2.9907216700
 H         -0.1725498558       -0.2895097223       -2.6212261605
 H          0.0928732346       -3.3814321669       -2.4232923946
 H         -1.3986660159       -2.4234452736       -2.0565358094
 H          1.3433471852       -2.1341999995       -0.6612557172
