  62
        -98.93849495
 C         -2.5554911402       -1.1860021406        0.2105870628
 C         -2.6562864780       -0.3330233116       -0.9127784436
 C         -3.5017978085        0.8645577992       -0.7530062286
 C         -4.1205160394        1.0878032597        0.4215817176
 C         -5.0670607716        2.1883341334        0.8543325482
 C         -5.1900054703        3.4763440837        0.0439575465
 C         -3.9382428698        4.3532580640        0.0388573517
 H         -4.1091657785        5.1872657695       -0.6451732257
 H         -3.7998758114        4.7678907446        1.0407361899
 C         -2.6402897005        3.6499750040       -0.3513020024
 H         -1.8353343806        4.3891158949       -0.3126830737
 H         -2.4038269724        2.8810733317        0.3877209861
 C         -2.6281754825        3.0216667668       -1.7437701184
 H         -2.8970269927        3.7737649015       -2.4878103814
 H         -1.6042243005        2.6973741476       -1.9488613858
 C         -3.5440051762        1.7987827505       -1.9274827158
 H         -4.5661320611        2.0972445881       -2.1468436403
 H         -3.1756148560        1.2282465052       -2.7849419579
 H         -5.9957160805        4.0555381603        0.5032592120
 H         -5.5025890357        3.2538075039       -0.9719098409
 H         -6.0569173506        1.7224726776        0.9145603100
 H         -4.7822220086        2.4376222767        1.8815771068
 O         -3.9952614344        0.2287193927        1.4772724076
 C         -3.2067846719       -0.9066117919        1.4087635194
 O         -3.1629648038       -1.5684962508        2.4668375317
 H         -0.2902476758       -0.3495749689        1.0549711040
 C          0.3021789418       -0.9423546199        0.3672452494
 C         -0.2681175726       -2.0645067078       -0.2208685748
 C          0.5121405466       -2.8244829170       -1.0825988949
 C          1.8165034032       -2.4531926003       -1.3602852972
 C          2.3703587515       -1.3216209684       -0.7911319127
 C          1.6037980454       -0.5607510801        0.0818963001
 N          2.1533923766        0.5997222818        0.6574402201
 S          3.6169003373        0.4514894037        1.4692205876
 O          3.7807163740       -0.8724982772        2.0240939731
 O          3.6407275067        1.5501892175        2.4104023403
 C          4.8392687476        0.7411183697        0.2078490139
 C          5.8373837014       -0.1883817263       -0.0093843357
 C          6.7860860164        0.0641168097       -0.9882292307
 C          6.7199197107        1.2349224179       -1.7278643683
 C          5.7117493308        2.1589724754       -1.4959904213
 C          4.7614281688        1.9137368258       -0.5177893577
 H          3.9643761710        2.6064040192       -0.3044447594
 H          5.6630816976        3.0680604660       -2.0735255601
 H          7.4584254402        1.4288676543       -2.4896370145
 H          7.5707145306       -0.6526263893       -1.1698318584
 H          5.8444464424       -1.0872794519        0.5861161363
 H          1.4948778132        1.1228719659        1.2163392728
 H          3.3818097724       -1.0231089440       -1.0135490958
 H          2.4086580233       -3.0514906959       -2.0356941255
 H          0.0972126821       -3.7075759282       -1.5400170704
 C         -1.6890966195       -2.4286739195        0.1397524371
 H         -1.6815890926       -2.8535770706        1.1551498207
 C         -2.3080095480       -3.4385472786       -0.8055487137
 C         -2.1469572474       -4.9077723053       -0.5596802783
 C         -3.4732296402       -4.2501796853       -0.3279251623
 H         -4.2793768993       -4.4520257170       -1.0170631742
 H         -3.7989340910       -4.0945644177        0.6907428730
 H         -2.0459508238       -5.5652048262       -1.4100713292
 H         -1.5759257981       -5.2115701147        0.3048347375
 H         -2.3288328060       -3.0870462632       -1.8306361591
 O         -2.0704195832       -0.5569865877       -2.0030919576
