  62
        -98.93454298
 C         -1.9265890404       -1.4966226751       -0.3600798548
 C         -1.7057858974       -0.2250919057        0.2185191458
 C         -2.8954501567        0.4744865754        0.7444049781
 C         -4.1000822458       -0.1207209161        0.6834610585
 C         -5.4657857428        0.3361275270        1.1524676432
 C         -5.7111145226        1.7906632504        1.5458323851
 C         -5.6345048448        2.7901289663        0.3913744550
 H         -6.4974289418        2.6319994579       -0.2605880216
 H         -5.7128575535        3.7972728736        0.8066380945
 C         -4.3819233618        2.7061708468       -0.4774753875
 H         -4.3423789413        1.7316917915       -0.9686133813
 H         -4.4716613551        3.4593177690       -1.2649862694
 C         -3.0612183574        2.9499720762        0.2498695564
 H         -2.2758854304        3.0055258566       -0.5089788436
 H         -3.0970622368        3.9114686521        0.7656398142
 C         -2.6572678985        1.8641551224        1.2614620915
 H         -1.5805585533        1.9448122827        1.4387194889
 H         -3.1534693097        2.0103336272        2.2175429232
 H         -5.0402756769        2.0814228573        2.3490176241
 H         -6.7254707702        1.8351608098        1.9518947960
 H         -6.1622476471        0.0591663803        0.3543306528
 H         -5.7136145518       -0.3003204440        2.0093224605
 O         -4.2525562370       -1.3786534420        0.1720128888
 C         -3.1896498335       -2.0900612549       -0.3556098635
 O         -3.4914661574       -3.2244667810       -0.7767134644
 H          1.7823542737       -1.4335159678       -1.5046647663
 C          1.6548398699       -1.7821809894       -0.4916619256
 C          0.4200558410       -2.2460294101       -0.0662582657
 C          0.2899259378       -2.6688930163        1.2544324859
 C          1.3578950786       -2.6071576728        2.1279564720
 C          2.5884490624       -2.1379692142        1.7012876289
 C          2.7319787114       -1.7218005059        0.3854278007
 N          3.9896547343       -1.2623128687       -0.0580193516
 S          4.6485896244        0.1265551015        0.6039421934
 O          6.0037685898        0.1894606443        0.1035459529
 O          4.4981261753        0.0829997103        2.0357098292
 C          3.7141343849        1.4854901959       -0.0806326478
 C          2.3728731137        1.5993721180        0.2247242287
 C          1.6465184288        2.6363376156       -0.3387221652
 C          2.2673560698        3.5404516600       -1.1858595917
 C          3.6171959341        3.4143309328       -1.4790322030
 C          4.3479587101        2.3749078517       -0.9270658191
 H          5.3968338837        2.2333953800       -1.1322955102
 H          4.0993460833        4.1186639909       -2.1379543057
 H          1.6955199352        4.3455420378       -1.6203196663
 H          0.5938938483        2.7078468187       -0.1167950940
 H          1.8932987518        0.8840925806        0.8730280430
 H          4.0674924270       -1.2145441551       -1.0645431864
 H          3.4274744308       -2.0682316656        2.3736868684
 H          1.2351606995       -2.9301293566        3.1511029939
 H         -0.6717018687       -3.0327305575        1.5921684425
 C         -0.7923424798       -2.3071170871       -0.9633389495
 H         -1.1560997425       -3.3480040012       -0.9656787778
 C         -0.4867179749       -1.9483748011       -2.4109427517
 C         -1.5374188818       -1.3580477031       -3.3019751003
 C         -0.3703570104       -0.5257297305       -2.8678607911
 H          0.3832691377       -0.2799540096       -3.6021098194
 H         -0.5318775318        0.2462781320       -2.1326379328
 H         -1.5822511925       -1.6906840458       -4.3282449272
 H         -2.5059368239       -1.1536378004       -2.8691684972
 H          0.1811952292       -2.6683258622       -2.8744168850
 O         -0.5760633844        0.3180728780        0.3029351896
