  62
        -98.93560090
 C         -2.4790983590       -1.3443771652        0.2449045141
 C         -2.6912595932       -0.4063471685       -0.7936089427
 C         -3.8071010938        0.5358516328       -0.6000896231
 C         -4.5520912203        0.4621344545        0.5169259128
 C         -5.6639950506        1.3998195880        0.8920522829
 C         -5.0798955534        2.7242777798        1.4237477146
 C         -5.3738443933        3.9407572874        0.5455260962
 H         -6.4128867175        4.2423102910        0.6933508906
 H         -4.7404450167        4.7580460074        0.8967981985
 C         -5.1520923237        3.7489713117       -0.9579669752
 H         -5.1383049975        4.7443883259       -1.4070328837
 H         -6.0053549187        3.2248877735       -1.3911041769
 C         -3.8682723639        3.0106465791       -1.3584858010
 H         -3.4634384945        3.4934938394       -2.2504176190
 H         -3.1124446431        3.1016847342       -0.5779533300
 C         -4.0667375739        1.5228699584       -1.7050601358
 H         -5.0749547838        1.3709943066       -2.1001425293
 H         -3.3610322238        1.2517461005       -2.4958503293
 H         -5.4739228670        2.9205376203        2.4219709746
 H         -3.9998630386        2.6033624542        1.5310339773
 H         -6.2552233901        0.9082875144        1.6648722865
 H         -6.3001155444        1.5807473455        0.0284768204
 O         -4.3214327053       -0.4531890523        1.4924300130
 C         -3.2939817103       -1.3711896397        1.3825312937
 O         -3.2087255627       -2.1567949815        2.3469804476
 O         -1.9981963562       -0.3357847020       -1.8457132719
 C         -1.3881430844       -2.4044841472        0.2117044817
 C         -0.0337337200       -1.8384013025        0.5684744113
 C          0.6558963243       -2.2978857614        1.6844232375
 C          1.9099470124       -1.8000680846        1.9920378342
 C          2.4997278425       -0.8334608951        1.1973161347
 C          1.8177140961       -0.3651761354        0.0819731009
 C          0.5632396275       -0.8710780547       -0.2273134079
 H          0.0355097824       -0.5018269187       -1.0943831939
 N          2.3979447844        0.6337776030       -0.7215211916
 S          3.9433476146        0.3545075895       -1.3172857534
 O          4.0541385325        1.1833941505       -2.4977263914
 O          4.1942192711       -1.0570146643       -1.4977851657
 C          5.0164712493        1.0049637750       -0.0534092532
 C          5.9940432921        0.2007696047        0.4990720790
 C          6.8282592728        0.7313287718        1.4709074089
 C          6.6715473155        2.0497509241        1.8700690181
 C          5.6863271298        2.8449898870        1.3035638992
 C          4.8500751178        2.3211791246        0.3307227530
 H          4.0758918520        2.9062496702       -0.1369644033
 H          5.5677683029        3.8699577387        1.6162452327
 H          7.3208671525        2.4602511275        2.6271549024
 H          7.5949395545        0.1149312311        1.9121289157
 H          6.0744596290       -0.8202039154        0.1615096287
 H          1.7866462171        0.9479768327       -1.4622682016
 H          3.4756297784       -0.4413354457        1.4331145592
 H          2.4337120881       -2.1673159418        2.8613415045
 H          0.1972349601       -3.0446152853        2.3163553860
 H         -1.6614355744       -3.1273201609        0.9918958001
 C         -1.3212409655       -3.1402330538       -1.1139353754
 C         -0.6926456151       -4.4989037429       -1.1585337342
 C         -2.1749939288       -4.3523045086       -1.3253328424
 H         -2.6054345796       -4.5149784846       -2.3020541062
 H         -2.8129237497       -4.6619765535       -0.5101020380
 H         -0.0995585807       -4.7632265532       -2.0206896902
 H         -0.3255895187       -4.9108579197       -0.2306640740
 H         -1.1677837723       -2.4870037070       -1.9628080642
