  62
        -98.93237357
 C         -2.4026501825        0.3799414461       -0.1672328760
 C         -3.5175486614        0.3810867773       -1.0374790245
 C         -4.7503576206       -0.2233790321       -0.5116798651
 C         -4.7444704096       -0.7477011577        0.7277165647
 C         -5.9382400707       -1.3266311989        1.4327609770
 C         -6.8430746341       -0.1918712039        1.9542561591
 C         -8.2212303844       -0.1307184181        1.2952409094
 H         -8.6780940190        0.8192759783        1.5805844276
 H         -8.8443294095       -0.9307981920        1.7003849092
 C         -8.2371082057       -0.2527300282       -0.2315363429
 H         -9.2253735679        0.0699586834       -0.5660415817
 H         -8.1395011958       -1.3011654132       -0.5172243397
 C         -7.1740832374        0.5607861535       -0.9809572618
 H         -6.8477122582        1.4117399595       -0.3827566656
 H         -7.6318376338        0.9653516978       -1.8860018720
 C         -5.9432490990       -0.2504177893       -1.4271082251
 H         -5.5780892115        0.1615749310       -2.3726997338
 H         -6.2372898049       -1.2872172497       -1.6134510511
 H         -6.3235320995        0.7566078448        1.8029447770
 H         -6.9835296637       -0.3043326237        3.0303236389
 H         -6.4884647300       -1.9738465146        0.7533194759
 H         -5.5653244464       -1.9275430635        2.2623865649
 O         -3.6476030720       -0.7416071748        1.5294302832
 C         -2.4506356689       -0.1812150673        1.1083484398
 O         -1.5298897731       -0.2441832010        1.9441567246
 H          1.4890739529        1.1950065445        0.2860649885
 C          1.2680414524        0.2258424230       -0.1334105642
 C          0.0031759167       -0.0382855265       -0.6337350736
 C         -0.2434341433       -1.2940285497       -1.1828327870
 C          0.7400790998       -2.2635610088       -1.2027712733
 C          1.9953043207       -2.0032905770       -0.6814303049
 C          2.2588942903       -0.7498028841       -0.1485697934
 N          3.5296792902       -0.4763001016        0.3857727849
 S          4.8723294476       -1.0559871413       -0.4594580137
 O          4.7090436844       -0.8126303936       -1.8751864076
 O          5.0968840545       -2.4282367018       -0.0791945568
 C          6.1647556745       -0.0239093946        0.2040769183
 C          6.5291971961        1.1215279193       -0.4782240298
 C          7.5184158433        1.9328512285        0.0547967773
 C          8.1206517609        1.5883978279        1.2556502514
 C          7.7436322803        0.4358028605        1.9289307542
 C          6.7559197852       -0.3805599702        1.4012593174
 H          6.4367560382       -1.2893028056        1.8842757734
 H          8.2160624787        0.1705952681        2.8609680024
 H          8.8910060044        2.2208904957        1.6677878346
 H          7.8157327815        2.8278980568       -0.4675938349
 H          6.0409131776        1.3447608930       -1.4133441603
 H          3.6402069719        0.4962209050        0.6378422770
 H          2.7724988674       -2.7506249702       -0.6897811196
 H          0.5296077077       -3.2340707137       -1.6274500727
 H         -1.2228557792       -1.5021966509       -1.5923347566
 C         -1.0990117453        0.9928562395       -0.6429514793
 H         -1.2790354664        1.2855032862       -1.6885248394
 C         -0.7810160235        2.2356230344        0.1622815823
 C         -0.0050191226        3.3610624306       -0.4527663937
 C         -1.4714544640        3.5184136368       -0.1882054171
 H         -1.7859801846        4.1703291962        0.6128660084
 H         -2.1495790802        3.5013550558       -1.0288713188
 H          0.3146804080        3.2461964326       -1.4775518875
 H          0.6862422063        3.9114030698        0.1678638346
 H         -0.6299664187        2.0198474066        1.2142484375
 O         -3.4810556404        0.8612327571       -2.2032947899
