  62
        -98.93586309
 C         -1.6136080711       -1.1589463409        0.2112931017
 C         -2.8323038205       -1.0455034201        0.9318440969
 C         -3.6413585865        0.1557988531        0.6793840274
 C         -3.1701565749        1.0946495180       -0.1603341687
 C         -3.8981500770        2.3413894067       -0.5752633024
 C         -4.9748876596        1.9965688777       -1.6240019527
 C         -6.4109062552        2.2273836092       -1.1530502095
 H         -7.0738515320        1.7536950075       -1.8803694737
 H         -6.6208273712        3.2990287132       -1.1658919643
 C         -6.7477784959        1.7010256264        0.2454111013
 H         -7.8365906814        1.6986354744        0.3299210278
 H         -6.3795983872        2.3986962085        0.9990787603
 C         -6.2252212542        0.2975056966        0.5787617859
 H         -6.0670201503       -0.2803753269       -0.3322939820
 H         -6.9936653249       -0.2225735523        1.1544618582
 C         -4.9401237006        0.2768513450        1.4273378967
 H         -4.9683491763       -0.5988625957        2.0826223254
 H         -4.9118003571        1.1631112962        2.0673659478
 H         -4.8498481485        0.9508649482       -1.9134065554
 H         -4.8111848763        2.5918784447       -2.5236297027
 H         -4.3488472363        2.8119255014        0.2957003336
 H         -3.1614759507        3.0237822429       -0.9995421993
 O         -1.9810016271        0.9737824451       -0.8003764064
 C         -1.1770157002       -0.1513931565       -0.6507226428
 O         -0.1385269532       -0.1052574589       -1.3343743354
 H          1.4288346521       -2.1763378641       -1.1179743153
 C          1.6338780748       -1.8837812663       -0.1003037193
 C          0.6307032231       -1.9625978616        0.8519702455
 C          0.9104417341       -1.5566648906        2.1532883631
 C          2.1674329341       -1.0912425739        2.4930041957
 C          3.1606901306       -0.9896351920        1.5344699582
 C          2.8809607466       -1.3698136730        0.2283822433
 N          3.8582883891       -1.2091781357       -0.7675449050
 S          4.7944752790        0.1749806054       -0.7324352382
 O          5.1424770591        0.4339533129       -2.1131261862
 O          5.9140489629       -0.0324416206        0.1555466819
 C          3.7826354496        1.5018044549       -0.0896486516
 C          2.4825763229        1.6559954670       -0.5270647805
 C          1.7304445524        2.7060343526       -0.0238224114
 C          2.2855911400        3.5861274302        0.8912701030
 C          3.5956963233        3.4218433261        1.3140965352
 C          4.3509110161        2.3699921905        0.8222615719
 H          5.3685408847        2.1975163817        1.1336847231
 H          4.0278012124        4.1058013194        2.0267498408
 H          1.6928292366        4.4004052798        1.2776039051
 H          0.7079043318        2.8151591898       -0.3504442013
 H          2.0396237220        0.9619680306       -1.2236658349
 H          3.5148946264       -1.3873805548       -1.7002284788
 H          4.1429546308       -0.6167676075        1.7771566863
 H          2.3744891919       -0.7921403386        3.5090724183
 H          0.1261620041       -1.6034059939        2.8958405532
 C         -0.7657351724       -2.3910236908        0.4849090375
 H         -1.2301326113       -2.8463541208        1.3738240037
 C         -0.7932494339       -3.4502125185       -0.6069308921
 C         -2.0828032109       -3.8002044691       -1.2862146132
 C         -0.9834522891       -3.1396088612       -2.0599944300
 H         -0.4386747623       -3.7323793619       -2.7808261011
 H         -1.1043649075       -2.1080611262       -2.3501730600
 H         -2.9512010319       -3.2103405578       -1.0308079636
 H         -2.3013827151       -4.8392535210       -1.4809975800
 H         -0.1299887629       -4.2782464232       -0.3746342527
 O         -3.2263130866       -1.9150256444        1.7539268660
