  62
        -98.94102683
 C         -1.0617864782       -1.3382871554       -0.1835047482
 C         -1.9413341548       -0.9391940125        0.8545252131
 C         -2.8420335824        0.1975127567        0.5873253694
 C         -2.7812297530        0.7968917528       -0.6160018492
 C         -3.6242907549        1.9269790024       -1.1455189000
 C         -5.0437220282        1.4791240474       -1.5281986714
 C         -5.7300356097        0.5764834686       -0.5067184787
 H         -6.6845601918        0.2582810154       -0.9343006588
 H         -5.1271130047       -0.3211824978       -0.3591088885
 C         -6.0167130396        1.2247673515        0.8457885137
 H         -6.6348806208        2.1125002025        0.6945367270
 H         -6.6023177986        0.5095875397        1.4291438972
 C         -4.7901005598        1.6177974797        1.6728189288
 H         -4.3567672105        2.5479879753        1.3149333848
 H         -5.1343651536        1.8096835216        2.6931932253
 C         -3.7177458829        0.5372272496        1.7688018005
 H         -3.0269146031        0.7994733186        2.5790047619
 H         -4.1831811817       -0.4031441201        2.0849014321
 H         -4.9829794367        0.9291269396       -2.4705643153
 H         -5.6518626896        2.3695165570       -1.6970942958
 H         -3.6604557691        2.7419329978       -0.4286716908
 H         -3.1260369954        2.2951642558       -2.0449584401
 O         -1.9060945474        0.3936941861       -1.5776306408
 C         -1.0269283994       -0.6557062580       -1.3984977739
 O         -0.2918368212       -0.8576260271       -2.3877957805
 H          1.6034318601       -1.1025728758       -1.3567975224
 C          1.9922057108       -1.3299877324       -0.3753648057
 C          1.2189941067       -2.0686487782        0.5089328664
 C          1.7308445955       -2.3351909582        1.7731024592
 C          2.9834602137       -1.8731972350        2.1405948332
 C          3.7447283557       -1.1238105808        1.2607827670
 C          3.2361175375       -0.8479604811       -0.0010178197
 N          3.9725913002       -0.0208253194       -0.8847567312
 S          4.0191705213        1.5815611398       -0.3910222594
 O          4.4154390442        2.3462990093       -1.5512582235
 O          4.8794517587        1.6804966054        0.7605549155
 C          2.3414252584        1.9760522657        0.0745337593
 C          1.4756241899        2.4507155901       -0.8896285862
 C          0.1617427790        2.7155636888       -0.5396634873
 C         -0.2662222257        2.4836107498        0.7581308089
 C          0.6116017404        1.9923373635        1.7114254219
 C          1.9300313134        1.7389791607        1.3709616368
 H          2.6442671773        1.3697423788        2.0883920568
 H          0.2709962308        1.8026108917        2.7167172426
 H         -1.2909119386        2.6830075105        1.0289662665
 H         -0.5250742888        3.0917985623       -1.2808195108
 H          1.8443216809        2.6172182783       -1.8893906399
 H          3.6077646755       -0.0541325068       -1.8277197996
 H          4.7078932427       -0.7267938037        1.5378193027
 H          3.3674638188       -2.0903311692        3.1256597005
 H          1.1315945341       -2.8934064253        2.4772479043
 C         -0.1616221722       -2.5280148113        0.1087579958
 H         -0.6142305439       -3.0240314001        0.9776106699
 C         -0.0932348202       -3.5246498905       -1.0317773074
 C          0.3093653569       -4.9376566466       -0.7387758031
 C         -1.1087209843       -4.6232022089       -1.1079821206
 H         -1.4704552657       -4.9231745077       -2.0800303425
 H         -1.8589782900       -4.6655549994       -0.3318452508
 H          0.9252876432       -5.4568674583       -1.4568252175
 H          0.5195143571       -5.1955323412        0.2881180599
 H          0.2373476281       -3.0899095814       -1.9660655692
 O         -1.9867690538       -1.5220734510        1.9705716220
