  62
        -98.93957506
 C         -2.6115043099       -1.2343506501        0.1305762107
 C         -2.8129484598       -0.2837319911       -0.8989793602
 C         -4.1916274298        0.1962877688       -1.0568702308
 C         -5.1667885999       -0.2951472903       -0.2707201303
 C         -6.6237645798        0.0763573897       -0.3297217107
 C         -6.9755805898        1.3468689905        0.4561251180
 C         -6.4985765397        2.6550412398       -0.1760265333
 H         -6.8292352697        2.6974294688       -1.2142251834
 H         -6.9948192297        3.4681328704        0.3575578859
 C         -4.9806886297        2.8750945698       -0.1080765135
 H         -4.7746017496        3.8964353101        0.2201670055
 H         -4.5477746297        2.2070628305        0.6403099872
 C         -4.2489208597        2.6702848784       -1.4346780733
 H         -4.5769525096        3.4242791277       -2.1537330640
 H         -3.1790502897        2.8128561185       -1.2605247634
 C         -4.4463527097        1.2821818678       -2.0579602319
 H         -3.7215487697        1.1642477970       -2.8670786117
 H         -5.4510224997        1.1940849375       -2.4708832518
 H         -8.0638742098        1.3856292007        0.5430123479
 H         -6.5650176098        1.2587982915        1.4647382781
 H         -6.9306116898        0.1934669487       -1.3693204208
 H         -7.1753589899       -0.7603834098        0.1042765701
 O         -4.9345059999       -1.2315592794        0.6880844307
 C         -3.6539690600       -1.7031640992        0.9287644012
 O         -3.5752595501       -2.5261800883        1.8641243220
 O         -1.8946361998        0.1391458081       -1.6479540006
 C         -1.2181036400       -1.7723589399        0.3962934013
 C         -0.2625204299       -0.6364646397        0.6741947402
 C         -0.6476923599        0.3709882012        1.5546889092
 C          0.2004726602        1.4227022415        1.8422723681
 C          1.4561347802        1.4917617208        1.2648137581
 C          1.8587350802        0.4836563999        0.4007925391
 C          1.0042591901       -0.5755898703        0.1159367002
 H          1.3317174301       -1.3506090410       -0.5594501991
 N          3.1304647202        0.5475733792       -0.1943266209
 S          4.4209971502        1.0333221201        0.7816000586
 O          4.3405013101        0.3805494914        2.0690660293
 O          4.4588447803        2.4742190302        0.8084153172
 C          5.8064753302        0.4079236391       -0.1485983207
 C          6.2955038402        1.1559752980       -1.2027774814
 C          7.3553475902        0.6562009872       -1.9426772709
 C          7.9043277102       -0.5758044025       -1.6190056596
 C          7.4032919401       -1.3144045914       -0.5575545089
 C          6.3428426501       -0.8210990406        0.1861143206
 H          5.9273457600       -1.3563686697        1.0249112111
 H          7.8339980800       -2.2704179812       -0.3067605579
 H          8.7298983201       -0.9617815231       -2.1958500692
 H          7.7497389503        1.2280991264       -2.7670604215
 H          5.8433331503        2.1113937479       -1.4118637424
 H          3.3536452801       -0.2885122513       -0.7167669801
 H          2.1288956302        2.3066490510        1.4794711873
 H         -0.1175575198        2.1991502522        2.5224659673
 H         -1.6284078799        0.3206048717        2.0092900292
 H         -1.2949150600       -2.3812970490        1.3094565319
 C         -0.7852672900       -2.6652048711       -0.7488265778
 C          0.1491269899       -3.8116602709       -0.5064661766
 C         -1.2976085501       -4.0720632011       -0.7975023064
 H         -1.5655887501       -4.4908212620       -1.7558237360
 H         -1.9360431801       -4.3931195902        0.0128371739
 H          0.8735027699       -4.0580434817       -1.2684162263
 H          0.4977760799       -3.9681914499        0.5033405036
 H         -0.7091837299       -2.1273892020       -1.6870983283
