  62
        -98.94334111
 C          1.9230692710        0.7564247807        0.5497590486
 C          2.2439487522        0.1859601908       -0.7050444116
 C          2.6678070031       -1.2187788816       -0.6742780110
 C          2.6680583594       -1.8921629721        0.4903239675
 C          3.0481987792       -3.3361801173        0.6776113112
 C          4.5584127107       -3.5694297855        0.8244084439
 C          5.3703438819       -3.4067320734       -0.4612655799
 H          6.3662861535       -3.8075260913       -0.2628341172
 H          4.9248595873       -4.0145446073       -1.2492097368
 C          5.5093675879       -1.9561806977       -0.9438424469
 H          5.2601071301       -1.2751079154       -0.1268954150
 H          6.5487537395       -1.7616543712       -1.2174517856
 C          4.6484434705       -1.6065259607       -2.1577510119
 H          4.9757653428       -2.1912919909       -3.0201303952
 H          4.7975412852       -0.5491696761       -2.3901304300
 C          3.1451485221       -1.8375224662       -1.9535679541
 H          2.6073154497       -1.3553793961       -2.7735772236
 H          2.9214601194       -2.9040273738       -1.9675764033
 H          4.9429675039       -2.8890019876        1.5876934588
 H          4.6955329827       -4.5899754311        1.1892053669
 H          2.5553289271       -3.6695090060        1.5935855318
 H          2.6648898708       -3.9260471985       -0.1554692635
 O          2.2959680693       -1.3218016346        1.6686146447
 C          1.9319852413        0.0134820341        1.7286723339
 O          1.6432814296        0.4170640482        2.8758144949
 H         -0.6152617500        0.5938836169        0.4006020251
 C         -0.7404119945        1.4883487342       -0.1940722839
 C          0.2665568309        2.4449802329       -0.2144540447
 C          0.0799399307        3.5891892029       -0.9797617316
 C         -1.0838254770        3.7603646812       -1.7093669196
 C         -2.0840963969        2.8069976760       -1.6843041285
 C         -1.9056362599        1.6559597123       -0.9233900927
 N         -2.8858265988        0.6499214433       -0.9079658864
 S         -3.0366813666       -0.3337981042        0.4519108450
 O         -3.0388846839        0.4718934923        1.6530089734
 O         -2.0514928349       -1.3850564418        0.3813837618
 C         -4.6633588313       -1.0087492076        0.1697631403
 C         -4.7986628604       -2.1069303761       -0.6582939286
 C         -6.0672359334       -2.6078144879       -0.9048304394
 C         -7.1732746214       -2.0054526923       -0.3237286245
 C         -7.0219173615       -0.9054560833        0.5071430904
 C         -5.7561624157       -0.3990525249        0.7571026766
 H         -5.5881357390        0.4472853336        1.4035564448
 H         -7.8828139285       -0.4413215072        0.9605606229
 H         -8.1590815225       -2.3977683912       -0.5171861497
 H         -6.1879340598       -3.4648332446       -1.5475749767
 H         -3.9090677900       -2.5458929164       -1.0793391887
 H         -3.7824627562        0.9612341916       -1.2553591389
 H         -2.9908007661        2.9426250629       -2.2536989140
 H         -1.2153033480        4.6528557131       -2.3021198198
 H          0.8467658371        4.3459046740       -1.0065109131
 C          1.4966866592        2.2095200452        0.6295310429
 H          1.2195993033        2.3877708334        1.6802502351
 C          2.6575976269        3.1144210281        0.2685743892
 C          2.7975683441        4.4624090022        0.9075388730
 C          3.7289086762        3.3522992745        1.2885995799
 H          4.7555326724        3.4000507454        0.9579695402
 H          3.6022743402        2.8840979868        2.2544639086
 H          3.1895710409        5.2756762034        0.3156101322
 H          2.0446554624        4.7570653470        1.6230491877
 H          2.9658088544        2.9990434428       -0.7642093426
 O          2.1837945121        0.8153544974       -1.7936347372
