  62
        -98.94125070
 C         -1.6698346060       -0.2578486284        0.2403797265
 C         -2.8112744027       -0.9915771512       -0.1656811896
 C         -3.9288321828       -0.1944276247       -0.6915529777
 C         -3.8127983278        1.1398967242       -0.8078149817
 C         -4.8538354145        2.0786525264       -1.3544153642
 C         -5.9117382908        2.5056604489       -0.3275530062
 C         -6.9242514998        1.4244797722        0.0525077573
 H         -7.7278495180        1.9176680294        0.6031573478
 H         -7.3617909614        1.0032095727       -0.8531446977
 C         -6.3504563819        0.2970724250        0.9221160515
 H         -5.4040764268        0.6210669593        1.3611125871
 H         -7.0332513220        0.0921650453        1.7498365635
 C         -6.1260653272       -1.0220707014        0.1829183100
 H         -5.6828451075       -1.7355249458        0.8823029632
 H         -7.0862192256       -1.4258035606       -0.1461642541
 C         -5.1988635907       -0.9135077603       -1.0345020475
 H         -5.7116460886       -0.4108205624       -1.8541547949
 H         -4.9330339566       -1.9239254312       -1.3544868821
 H         -5.4028157747        2.8601957791        0.5717204930
 H         -6.4578224697        3.3498852041       -0.7548491692
 H         -5.3439744536        1.6221288347       -2.2148183668
 H         -4.3209267658        2.9706846521       -1.6904555273
 O         -2.6842362794        1.8055914434       -0.4459904516
 C         -1.6056545238        1.1329512000        0.1003946303
 O         -0.6545586727        1.8738518461        0.4205555629
 O         -2.9195073130       -2.2451217763       -0.1071558791
 C         -0.4301647701       -0.8984040429        0.8430259224
 C          0.4839078639       -1.4582769009       -0.2206359914
 C          0.0850036339       -2.4997835144       -1.0515645615
 C          0.9566875421       -3.0105563455       -1.9953715472
 C          2.2424235876       -2.5121875584       -2.1131921488
 C          2.6494733400       -1.4697816728       -1.2890675389
 C          1.7634032399       -0.9413737499       -0.3609446590
 H          2.0782266799       -0.1207802365        0.2654919103
 N          3.9402009726       -0.9347074456       -1.3922124435
 S          4.7524185854       -0.3962465176       -0.0330471581
 O          6.1494968164       -0.4446826842       -0.4084088620
 O          4.3845566741       -1.1491482138        1.1429442993
 C          4.2612322523        1.3057372191        0.1338909276
 C          3.7802831524        1.7672482234        1.3424508625
 C          3.4247644215        3.1015746992        1.4579590806
 C          3.5576392021        3.9468876841        0.3678402862
 C          4.0458636575        3.4688224839       -0.8388202722
 C          4.4032186006        2.1360632828       -0.9600058919
 H          4.7895012565        1.7291595166       -1.8796357185
 H          4.1461421976        4.1305903550       -1.6841198035
 H          3.2765254457        4.9840764458        0.4602207620
 H          3.0408171500        3.4739866272        2.3941591974
 H          3.6873397463        1.0750299057        2.1649565035
 H          4.5519197572       -1.4107092070       -2.0387137231
 H          2.9267716436       -2.9244779533       -2.8392394765
 H          0.6366247679       -3.8165282542       -2.6385473379
 H         -0.9134955028       -2.8968949716       -0.9536799456
 H          0.1108521137       -0.0823157777        1.3413375421
 C         -0.7382299563       -1.9649824662        1.8775565897
 C          0.3612975174       -2.4114890371        2.7922028813
 C         -0.7755079912       -1.5944949832        3.3278467751
 H         -1.5016151595       -2.0772344088        3.9647973760
 H         -0.5848394165       -0.5629632050        3.5869340078
 H          0.4145525407       -3.4555679372        3.0607623519
 H          1.3279180323       -1.9409634721        2.6822498031
 H         -1.4413686990       -2.7111145306        1.5324853715
