  62
        -98.94398416
 C          1.6925898481        1.3083093908        0.3174870158
 C          1.3651533110        0.2611499196       -0.5717499034
 C          1.9187450320       -1.0667760662       -0.2626098149
 C          2.6667774265       -1.2277393868        0.8444827119
 C          3.2929618256       -2.4673186667        1.4486140062
 C          3.4615357365       -3.7406989047        0.6234326088
 C          4.4427986719       -3.6253345672       -0.5419505215
 H          5.4502520427       -3.4989124969       -0.1378060606
 H          4.4219395533       -4.5656969795       -1.0970773661
 C          4.1822496941       -2.4721914651       -1.5075819019
 H          4.3212759889       -1.5214973900       -0.9888147252
 H          4.9362260131       -2.5217991463       -2.2977653106
 C          2.8076750642       -2.4774630834       -2.1739882172
 H          2.6316933963       -3.4462307033       -2.6450144370
 H          2.8235149151       -1.7194551675       -2.9612297223
 C          1.6181626894       -2.1571451473       -1.2499177891
 H          1.2581565718       -3.0450767382       -0.7343136543
 H          0.7964249042       -1.7896738988       -1.8712668393
 H          2.4947617360       -4.0913268908        0.2740275384
 H          3.8465298761       -4.5029950961        1.3065444132
 H          4.2711264701       -2.1527706487        1.8268566363
 H          2.6821340995       -2.7034967083        2.3277962137
 O          2.9423557548       -0.1880594895        1.6864755850
 C          2.4614013432        1.0880899673        1.4563489466
 O          2.7847685896        1.9270857734        2.3236484268
 O          0.6273399935        0.4238368887       -1.5801728104
 C          1.1252803758        2.6970028184        0.0866370186
 C         -0.3797614133        2.6170531739       -0.0075381599
 C         -1.1296087608        3.3301453072       -0.9346231699
 C         -2.5059886976        3.1882515367       -0.9819485705
 C         -3.1592230089        2.3195729524       -0.1267584462
 C         -2.4183166392        1.6108017419        0.8117363417
 C         -1.0469184907        1.7876402320        0.8850487644
 H         -0.4866310161        1.2317272373        1.6230910457
 N         -3.0276729422        0.6957883259        1.6964365866
 S         -2.5756835069       -0.9138026467        1.5613413436
 O         -3.3922398126       -1.6121008604        2.5317028273
 O         -1.1497680178       -1.0447901043        1.7149248503
 C         -3.0905607035       -1.3801537226       -0.0822937829
 C         -2.3282368692       -0.9947129843       -1.1666388914
 C         -2.7795870730       -1.3056641264       -2.4406335539
 C         -3.9746906646       -1.9872825217       -2.6088548139
 C         -4.7288932154       -2.3655708183       -1.5080720270
 C         -4.2872440142       -2.0552816875       -0.2323635663
 H         -4.8373140518       -2.3300495459        0.6532503707
 H         -5.6576271102       -2.8970415981       -1.6395796389
 H         -4.3184671547       -2.2250546018       -3.6031771133
 H         -2.1870082906       -1.0060606205       -3.2902710123
 H         -1.3986872044       -0.4674863334       -1.0166522719
 H         -4.0374949210        0.7509327870        1.7035816666
 H         -4.2293090251        2.1875708661       -0.1823871444
 H         -3.0752261390        3.7473058731       -1.7087120875
 H         -0.6346440192        3.9921585498       -1.6262202590
 H          1.3860332147        3.2860148269        0.9786175794
 C          1.7703826918        3.3336445563       -1.1275762552
 C          1.9541604323        4.8192013562       -1.1980931582
 C          3.1391613746        3.9264909738       -0.9883508732
 H          3.8422408635        3.7990364474       -1.7977042333
 H          3.5927657854        3.8948423612       -0.0080074047
 H          1.8477607653        5.3075777769       -2.1550132148
 H          1.6103636160        5.4067358317       -0.3602078721
 H          1.5473751346        2.7986793369       -2.0435745495
