  62
        -98.93393322
 C         -1.5560657509        0.6460309507        0.5642185664
 C         -2.9064527951        0.9855692892        0.8339510265
 C         -3.9002894757        0.6242240395       -0.1900069219
 C         -3.4866973087        0.0558402893       -1.3347746987
 C         -4.3106249502       -0.3538480141       -2.5297295064
 C         -5.6403849074       -1.0717639392       -2.2588808390
 C         -5.6580220008       -1.9575683960       -1.0044016600
 H         -6.0352890954       -2.9457881806       -1.2739177908
 H         -4.6434405064       -2.0893117815       -0.6245643179
 C         -6.5520065948       -1.4015267613        0.1067961131
 H         -7.4798960029       -1.0382166638       -0.3402453307
 H         -6.8141507635       -2.2157024189        0.7867464510
 C         -5.9350106942       -0.2875828998        0.9519674886
 H         -5.1442287100       -0.6983336584        1.5856919423
 H         -6.7102807804        0.0973280448        1.6187205378
 C         -5.3356622956        0.8881537911        0.1632066814
 H         -5.9314898324        1.1171991425       -0.7170039880
 H         -5.3294926763        1.7639239260        0.8178550449
 H         -6.4418148487       -0.3378754391       -2.1855385435
 H         -5.8536547326       -1.6817072476       -3.1383827614
 H         -4.5015310544        0.5386265846       -3.1329087281
 H         -3.6560317592       -1.0027754986       -3.1166820457
 O         -2.1724902658       -0.2043004394       -1.5790380332
 C         -1.1765450422        0.0686847348       -0.6478591128
 O         -0.0375941074       -0.2536986379       -1.0291597624
 H          2.0299791739        0.1933068425        0.9569846971
 C          1.8477908166        1.2333777902        0.7422658490
 C          0.6051195498        1.7899614928        1.0065062639
 C          0.3904995059        3.1298288284        0.6946182128
 C          1.3969581008        3.8991995849        0.1443999090
 C          2.6366921667        3.3413103193       -0.1124526531
 C          2.8583488617        2.0016786440        0.1793992381
 N          4.1177469852        1.4127850068       -0.0593787851
 S          4.1917419061        0.1691404104       -1.1934520228
 O          5.5941225488        0.1164947086       -1.5604112245
 O          3.2720309464        0.3918448895       -2.2842924094
 C          3.7977284587       -1.3103182668       -0.2909143956
 C          2.6727498159       -2.0404104555       -0.6144289829
 C          2.4303929348       -3.2224718408        0.0692418222
 C          3.3047682781       -3.6439891677        1.0589748018
 C          4.4255426302       -2.8909149846        1.3770255764
 C          4.6803281310       -1.7142027328        0.6924509746
 H          5.5469464265       -1.1068198896        0.8937165210
 H          5.0999425601       -3.2199745438        2.1511196800
 H          3.1085042106       -4.5644476085        1.5865284302
 H          1.5547318643       -3.8042397028       -0.1719469812
 H          1.9983849501       -1.6596739604       -1.3648852904
 H          4.8348488645        2.0901854425       -0.2838930339
 H          3.4283734340        3.9365601803       -0.5433903716
 H          1.2171794428        4.9382082460       -0.0877498123
 H         -0.5811349837        3.5620615549        0.8917868138
 C         -0.5244391631        1.0034831323        1.6197612592
 H         -1.0670196460        1.6790520061        2.3018273332
 C         -0.0455063556       -0.1646097172        2.4679770823
 C         -1.0107913103       -1.2243725383        2.9069171331
 C          0.0884169183       -1.5617832433        1.9470094022
 H          0.9156646534       -2.1581793098        2.3026289086
 H         -0.1628981192       -1.7408437430        0.9140579033
 H         -0.9471664092       -1.5954486314        3.9184941482
 H         -2.0200025052       -1.1623658064        2.5260587545
 H          0.6909702880        0.1511394135        3.2006994320
 O         -3.2688513873        1.5757549548        1.8861238384
