  62
        -98.93763049
 C          2.6394807772        1.1174788116        0.2054785799
 C          2.7232009574        0.2493184968       -0.9088542244
 C          3.5248772664       -0.9723614797       -0.7208632893
 C          4.1251589425       -1.1951268670        0.4607781338
 C          5.0104416059       -2.3504767613        0.8557275212
 C          4.5552202461       -3.7592257849        0.4468023499
 C          3.0339537956       -3.9612758071        0.3842835753
 H          2.7717596249       -4.8547161452        0.9543147311
 H          2.5234694712       -3.1172174591        0.8519580864
 C          2.5138180896       -4.1464108143       -1.0436290292
 H          1.5400747446       -4.6402379292       -1.0007541388
 H          3.1944465548       -4.8124708556       -1.5783228629
 C          2.3343824296       -2.8615040453       -1.8518086641
 H          2.0832264658       -3.1420635298       -2.8773365426
 H          1.4873900016       -2.2904241152       -1.4610010254
 C          3.5519771574       -1.9233348274       -1.8824174724
 H          4.4822735823       -2.4845445400       -1.9227334431
 H          3.4759189734       -1.3049588836       -2.7807184745
 H          4.9839555499       -4.4521894129        1.1726117416
 H          4.9848346228       -4.0136837348       -0.5210914409
 H          6.0105524810       -2.1666041661        0.4530270955
 H          5.0859844924       -2.2911433303        1.9441553385
 O          4.0185046454       -0.3273085369        1.5081667691
 C          3.2681242633        0.8327731747        1.4150161912
 O          3.2336381224        1.5105637498        2.4635985637
 H          0.3458660657        0.3997722540        1.1151867202
 C         -0.2252044577        0.9746043269        0.3947637173
 C          0.3810343012        2.0506116442       -0.2420101481
 C         -0.3708457476        2.7898487707       -1.1456314856
 C         -1.6831460033        2.4417207176       -1.4162075673
 C         -2.2732318139        1.3552144250       -0.7978391015
 C         -1.5354640408        0.6166312344        0.1182514305
 N         -2.1203269579       -0.4989203814        0.7444298669
 S         -3.6048848824       -0.2895694767        1.5022201140
 O         -3.7647281499        1.0619267463        1.9874664367
 O         -3.6725093442       -1.3403162471        2.4945675825
 C         -4.7934674794       -0.6243101763        0.2200786670
 C         -4.6958037430       -1.8211226846       -0.4623637730
 C         -5.6201678560       -2.1014728943       -1.4558433143
 C         -6.6228494846       -1.1877742712       -1.7453142535
 C         -6.7095034046        0.0074603325       -1.0481368566
 C         -5.7867245592        0.2952133893       -0.0543595650
 H         -5.8097625165        1.2143408144        0.5090112092
 H         -7.4899490403        0.7159852421       -1.2744334743
 H         -7.3407545783       -1.4088949640       -2.5192623714
 H         -5.5552744074       -3.0294835280       -2.0007380161
 H         -3.9034611474       -2.5043170560       -0.2053756484
 H         -1.4866179790       -1.0011523331        1.3492837910
 H         -3.2913996825        1.0755942834       -1.0138323827
 H         -2.2532108165        3.0226414021       -2.1249502623
 H          0.0722315011        3.6375523777       -1.6418159955
 C          1.8110668283        2.3847614926        0.1118859494
 H          1.8151471143        2.8272161808        1.1196908442
 C          2.4573900382        3.3601359971       -0.8505105511
 C          2.3212446746        4.8371660764       -0.6387778781
 C          3.6334481519        4.1610013505       -0.3815309915
 H          4.4483010837        4.3327538227       -1.0685772683
 H          3.9486294915        4.0227761721        0.6429185358
 H          2.2386687459        5.4771500057       -1.5043132108
 H          1.7487601620        5.1703886529        0.2138665691
 H          2.4798466463        2.9853170932       -1.8672028644
 O          2.1600334001        0.4804016075       -2.0090834334
