  62
        -98.93740746
 C         -1.7728265074       -0.8179530008        0.6676802177
 C         -2.7533741033       -1.1257658936       -0.3042473796
 C         -4.0854283763       -0.5185355619       -0.1124653096
 C         -4.3045659179        0.2914955948        0.9388600233
 C         -5.5519487358        1.0162247013        1.4003786405
 C         -6.7587688074        1.1623946120        0.4770801742
 C         -6.5300177871        2.0605851552       -0.7382703051
 H         -7.4165064120        2.0070270973       -1.3740055354
 H         -6.4304454830        3.0928291441       -0.3929181335
 C         -5.2964865916        1.7355611498       -1.5771700996
 H         -5.2534069671        2.4546671756       -2.3997916451
 H         -4.3954637806        1.8814620402       -0.9773968992
 C         -5.2678629826        0.3340026880       -2.1833502581
 H         -4.4217380728        0.2926551672       -2.8744392082
 H         -6.1796498505        0.1641257271       -2.7591992339
 C         -5.1001711220       -0.8182878522       -1.1783133823
 H         -6.0519950809       -1.0981694684       -0.7338218997
 H         -4.7233990897       -1.6881927984       -1.7237792925
 H         -7.1163993674        0.1849328078        0.1672253353
 H         -7.5541835971        1.6147810273        1.0756817448
 H         -5.8741092030        0.5003980344        2.3118282604
 H         -5.2179676235        2.0108139766        1.7132913078
 O         -3.3265852517        0.5553561967        1.8557924603
 C         -2.0564715315        0.0230029302        1.7455757472
 O         -1.2811403202        0.3614057781        2.6634350559
 H          1.3070551709        0.7282768662        0.9809536146
 C          1.2330993685        0.4638903996       -0.0639583980
 C          0.4204841977       -0.5917090020       -0.4564270247
 C          0.3189089377       -0.8888796172       -1.8116456531
 C          1.0118734910       -0.1402992698       -2.7451908243
 C          1.8337275365        0.9001527044       -2.3493304450
 C          1.9415493502        1.2063292695       -0.9983035746
 N          2.7711266398        2.2566768163       -0.5628035132
 S          3.8775928598        1.9399700647        0.6530853181
 O          3.2083347973        1.8078395821        1.9211731528
 O          4.8484580233        3.0074466409        0.5496462003
 C          4.6176339104        0.3910727191        0.1694078188
 C          4.1578641379       -0.7898509403        0.7156713218
 C          4.6906723382       -1.9871995319        0.2641086221
 C          5.6653035601       -1.9827603543       -0.7214922307
 C          6.1209419401       -0.7873768976       -1.2564262846
 C          5.5901202676        0.4121407777       -0.8115527480
 H          5.9226369390        1.3639478173       -1.1930985600
 H          6.8831710839       -0.7873338375       -2.0187420590
 H          6.0732357155       -2.9177153879       -1.0715013417
 H          4.3407234157       -2.9185609671        0.6802789591
 H          3.4014458897       -0.7496479466        1.4830829284
 H          3.2173012563        2.7624911721       -1.3150196738
 H          2.3792481775        1.4796248239       -3.0787636841
 H          0.9170248356       -0.3747258252       -3.7944841006
 H         -0.3337191173       -1.6852882053       -2.1298260346
 C         -0.3500008366       -1.3526230874        0.5963697220
 H          0.0985233946       -1.1153982667        1.5708799196
 C         -0.2938700962       -2.8532852784        0.3949434582
 C          0.9666599162       -3.5815917938        0.7470491856
 C         -0.2570337895       -3.7473092243        1.5961327836
 H         -0.7923420532       -4.6841322922        1.5570254183
 H         -0.2720358581       -3.2781172790        2.5697288765
 H          1.2774539726       -4.4065776008        0.1251806720
 H          1.7800026567       -2.9954094079        1.1472686732
 H         -0.8598396913       -3.1995086648       -0.4589587607
 O         -2.5556578515       -1.8808283341       -1.2909195002
