  62
        -98.94128291
 C          1.6131639358        0.3368718726        0.2937601278
 C          2.7521588854        1.0133953570       -0.2066928037
 C          3.8253880364        0.1567457974       -0.7367990272
 C          3.6632207045       -1.1778251498       -0.7592071084
 C          4.6960366906       -2.1623827857       -1.2239315972
 C          5.5867644110       -2.6240039510       -0.0618444756
 C          6.1450404086       -1.4785337003        0.7826993217
 H          5.3203622025       -0.9793504338        1.2965495752
 H          6.7812000713       -1.9218159828        1.5519370111
 C          6.9502414811       -0.4390377244       -0.0093878447
 H          7.8623295179       -0.2064202427        0.5444333649
 H          7.2530186736       -0.8578133631       -0.9698317106
 C          6.2204572683        0.8852438060       -0.2417606664
 H          5.8358910666        1.2632541009        0.7088882696
 H          6.9470708676        1.6130303668       -0.6128845456
 C          5.0626059379        0.8413225602       -1.2467981690
 H          4.7680883783        1.8732000527       -1.4590868715
 H          5.4008638755        0.3829064351       -2.1782034603
 H          6.4107077275       -3.2115864037       -0.4709329001
 H          4.9970464460       -3.2729620957        0.5896451779
 H          4.1811474350       -3.0290887101       -1.6416814679
 H          5.3042137596       -1.7039641494       -2.0012707353
 O          2.5388176775       -1.7906438199       -0.3097306831
 C          1.4991396374       -1.0562889370        0.2325746999
 O          0.5378043492       -1.7470199479        0.6247102645
 H         -2.0592616512        0.1948503399        0.3366497740
 C         -1.7693779321        1.0151359722       -0.3016180058
 C         -0.5088095444        1.5769671859       -0.1608656627
 C         -0.1378850656        2.6163160259       -1.0073309282
 C         -1.0200912353        3.0827288985       -1.9643378788
 C         -2.2872709337        2.5393618372       -2.0832995808
 C         -2.6649992602        1.4956547864       -1.2464053345
 N         -3.9324937450        0.9113947445       -1.3590189740
 S         -4.7268894872        0.2878530138       -0.0278517215
 O         -6.1177642926        0.2569511804       -0.4273509639
 O         -4.4285610370        1.0343420102        1.1718812833
 C         -4.1264947696       -1.3816387995        0.1045498278
 C         -4.2230307766       -2.1973055934       -1.0051615160
 C         -3.7713405399       -3.5036078132       -0.9159986021
 C         -3.2348401568       -3.9698238618        0.2746807548
 C         -3.1492569462       -3.1400153124        1.3811805641
 C         -3.6003980853       -1.8326487645        1.2980147681
 H         -3.5468172001       -1.1532888287        2.1346864223
 H         -2.7266085523       -3.5025184524        2.3043875729
 H         -2.8782924802       -4.9855563915        0.3418396386
 H         -3.8350055654       -4.1536510285       -1.7739159811
 H         -4.6481530739       -1.7996852258       -1.9117030513
 H         -4.5604327973        1.3607654603       -2.0085889882
 H         -2.9790766020        2.9158343931       -2.8215407789
 H         -0.7222535757        3.8878052861       -2.6192000997
 H          0.8494975786        3.0415692559       -0.9165134686
 C          0.4198577230        1.0517561513        0.9077794593
 H         -0.1290480647        0.2812623959        1.4663875455
 C          0.8041964479        2.1543049925        1.8756599327
 C         -0.2355862567        2.6653340724        2.8255809196
 C          0.9092020511        1.8438540332        3.3367960537
 H          1.6786789973        2.3344848475        3.9139823191
 H          0.7090303020        0.8291413476        3.6496955965
 H         -0.2523166194        3.7205079968        3.0518582004
 H         -1.2155296971        2.2116378716        2.7866203193
 H          1.5068224317        2.8670170818        1.4654233208
 O          2.8930353754        2.2649984607       -0.2201362382
