  62
        -98.94384170
 C         -1.9552585317       -0.9279249288       -0.3685387524
 C         -0.9637323027       -1.5051490994       -1.1914126774
 C         -0.1235118614       -2.5508436333       -0.5833054206
 C         -0.3235150277       -2.8758764749        0.7057428253
 C          0.4504078476       -3.8665849207        1.5320460967
 C          1.5985748742       -3.1704879695        2.2840901212
 C          2.9178622005       -3.1121507909        1.5170171343
 H          3.3309725129       -4.1193299280        1.4249733961
 H          3.6143228379       -2.5195331440        2.1148977994
 C          2.8073867362       -2.4816048970        0.1270972811
 H          3.7952890071       -2.1158591816       -0.1611008773
 H          2.1504754704       -1.6130689483        0.1943194809
 C          2.3030064327       -3.4601395743       -0.9441227725
 H          2.3381732452       -4.4730281016       -0.5429828724
 H          2.9842688390       -3.4410151004       -1.7972334144
 C          0.8983675905       -3.1756949821       -1.4953510095
 H          0.4796163021       -4.1067568277       -1.8929465276
 H          0.9729822332       -2.4848786545       -2.3412391719
 H          1.7717053315       -3.6931610897        3.2273828838
 H          1.2785857692       -2.1520419800        2.5229443198
 H          0.8215118322       -4.6791694365        0.9137681666
 H         -0.2508266470       -4.2729090326        2.2641266497
 O         -1.2807455520       -2.2843577363        1.4705830006
 C         -2.0912470713       -1.2807752061        0.9740807238
 O         -2.8914554290       -0.8071420131        1.8045358022
 O         -0.7744849767       -1.1499276507       -2.3889840695
 C         -2.8020099637        0.2099575535       -0.9174151523
 C         -2.4491954564        1.4584328153       -0.1457436182
 C         -3.3712580663        2.2902144360        0.4730475911
 C         -2.9364696962        3.3538596145        1.2469922129
 C         -1.5882789221        3.5855142620        1.4482401773
 C         -0.6571481364        2.7663221633        0.8174290427
 C         -1.0978307532        1.7505039611       -0.0103239879
 H         -0.3747641886        1.1280251583       -0.5112671900
 N          0.7219210917        2.9416025311        1.0045597916
 S          1.7514979126        1.6153893123        1.1246893324
 O          1.0333448683        0.3878993138        1.3631709804
 O          2.7173544093        1.9994189164        2.1346428880
 C          2.5819814714        1.5934232221       -0.4527657314
 C          2.1779334510        0.7442317771       -1.4623884896
 C          2.8510125259        0.7710422127       -2.6740978853
 C          3.9118665139        1.6431255619       -2.8585014076
 C          4.3087044274        2.4908059517       -1.8349612798
 C          3.6399378508        2.4669730102       -0.6225895508
 H          3.9247895108        3.0959994641        0.2043413764
 H          5.1359352306        3.1671162309       -1.9780177752
 H          4.4318186303        1.6590096230       -3.8033251483
 H          2.5331525763        0.1089122114       -3.4638110426
 H          1.3515186963        0.0689471403       -1.3049930627
 H          0.9648196959        3.6465769479        1.6851394877
 H         -1.2559874981        4.3853688557        2.0927109908
 H         -3.6611370077        3.9935959793        1.7279631738
 H         -4.4264013190        2.0973437607        0.3684530296
 H         -2.4821305011        0.3398762475       -1.9618022429
 C         -4.2746043092       -0.1333077527       -0.8910554050
 C         -5.2153739761        0.5174127313       -1.8596119802
 C         -4.8563617257       -0.9283637663       -2.0200992605
 H         -5.6015958406       -1.6756526726       -1.7926490702
 H         -4.1920902512       -1.2057484192       -2.8254472494
 H         -6.2117992854        0.7626437069       -1.5245608951
 H         -4.7990638369        1.2232713490       -2.5621332385
 H         -4.6334608378       -0.3482435141        0.1090657896
