  62
        -98.93415691
 C         -2.3931038343       -1.3437627751        0.1441353469
 C         -2.2646291089        0.0569401775       -0.0275397818
 C         -3.3459158521        0.8867184054        0.5408022094
 C         -4.3674832010        0.3026635782        1.1875360145
 C         -5.5485115618        0.9493510829        1.8671603820
 C         -6.2302240523        2.1200554244        1.1460631754
 C         -6.2275481241        2.0293720929       -0.3868899183
 H         -5.9129813039        1.0332235028       -0.7027316130
 H         -7.2445083135        2.1812462741       -0.7531117496
 C         -5.3303303511        3.0798980829       -1.0458880565
 H         -5.4781089865        4.0355795753       -0.5383078075
 H         -5.6446944421        3.2094262214       -2.0843245325
 C         -3.8381929074        2.7499934553       -1.0634347605
 H         -3.6497447781        1.9264962735       -1.7578378908
 H         -3.3039310460        3.6211024846       -1.4507605461
 C         -3.2296293451        2.3637162816        0.2947758114
 H         -2.1579997022        2.5808814575        0.2586356838
 H         -3.6713891301        2.9418563749        1.1028204298
 H         -5.7613388838        3.0560296401        1.4465592357
 H         -7.2596171523        2.1550529259        1.5066927910
 H         -6.2683990615        0.1403769035        2.0132632787
 H         -5.2290598192        1.2784894063        2.8603198172
 O         -4.4416747868       -1.0489791803        1.3470572050
 C         -3.4677930101       -1.8943165590        0.8483487477
 O         -3.6684689683       -3.1004179223        1.0938534417
 H          0.5706012596       -0.9859124516       -1.7621132740
 C          0.8746049510       -1.1964481599       -0.7486498637
 C          0.0182816294       -1.8858324279        0.0939164755
 C          0.4136754649       -2.1142539041        1.4082075414
 C          1.6398727138       -1.6666917353        1.8629709240
 C          2.4896436617       -0.9705846770        1.0210267883
 C          2.0938512771       -0.7190951232       -0.2854092086
 N          2.9404109632        0.0008307823       -1.1443952507
 S          3.7148005254        1.3708133951       -0.5630609255
 O          2.9717276023        2.0181222533        0.4926282927
 O          3.9951094532        2.1688950038       -1.7373071318
 C          5.2528094274        0.7357584424        0.0759077682
 C          5.6490312913        1.0536192876        1.3601569810
 C          6.8544154326        0.5581331530        1.8328491323
 C          7.6395352359       -0.2410995503        1.0163610619
 C          7.2294227003       -0.5485073284       -0.2724511047
 C          6.0259499697       -0.0558046120       -0.7507889161
 H          5.6732454372       -0.2689660139       -1.7459060955
 H          7.8427939705       -1.1700662142       -0.9047292131
 H          8.5763965785       -0.6263268177        1.3867220289
 H          7.1746420288        0.7972423764        2.8342692756
 H          5.0035878566        1.6746670414        1.9611527554
 H          2.5296461102        0.1835680502       -2.0488459469
 H          3.4390503870       -0.6025021099        1.3740023380
 H          1.9358719017       -1.8548873059        2.8839047220
 H         -0.2599114690       -2.6382091282        2.0728143951
 C         -1.3503962143       -2.3331515539       -0.3531478775
 H         -1.5866373040       -3.2741390529        0.1685066732
 C         -1.4204359865       -2.6368299919       -1.8425575322
 C         -2.7488436953       -2.8015495659       -2.5173539491
 C         -1.8691882560       -1.6409457435       -2.8673465339
 H         -1.3774667548       -1.6447876223       -3.8296581724
 H         -2.1519755884       -0.6567321860       -2.5294964661
 H         -3.6315519458       -2.6132749781       -1.9230962284
 H         -2.8682481518       -3.5960191368       -3.2383187403
 H         -0.6361717077       -3.3236309796       -2.1466869700
 O         -1.3062143616        0.6142304988       -0.6225881167
