  62
        -98.94523619
 C         -2.4482693138       -1.2066562255       -0.0815084652
 C         -3.5194442432       -0.8158624697        0.7621736051
 C         -4.4006658209        0.2338148363        0.2415614175
 C         -4.1618408810        0.7629665536       -0.9720987497
 C         -4.9795796484        1.8288765078       -1.6496745516
 C         -4.6161602275        3.2585828993       -1.2256945310
 C         -5.0636229287        3.6533640126        0.1823134817
 H         -4.9412777119        4.7351431172        0.2648481757
 H         -6.1257533093        3.4357770162        0.2988821176
 C         -4.2705966248        2.9800299342        1.3111693071
 H         -3.9972949024        3.7272772032        2.0595988291
 H         -3.3378497049        2.5753031424        0.9104758046
 C         -5.0238481434        1.8656574977        2.0377027142
 H         -5.8890198248        2.2857856429        2.5552123248
 H         -4.3567864567        1.4360293347        2.7891898554
 C         -5.5048744538        0.7292902073        1.1259827022
 H         -5.8245705893       -0.1039640153        1.7563727986
 H         -6.3523948798        1.0606179722        0.5265624505
 H         -3.5342334426        3.3846933347       -1.3136525780
 H         -5.0883566550        3.9390790868       -1.9381057064
 H         -4.7922035124        1.7298964566       -2.7210761745
 H         -6.0392396769        1.6511899099       -1.4639497751
 O         -3.1266157792        0.3585419276       -1.7542960979
 C         -2.2351809996       -0.6160948670       -1.3270628835
 O         -1.3300381972       -0.8627594702       -2.1486009691
 O         -3.7314786162       -1.3266413895        1.8934487914
 C         -1.4922675427       -2.2708670945        0.4336890465
 C         -0.1724952952       -1.6056273552        0.7354926437
 C          0.0011188845       -0.9580906893        1.9557920595
 C          1.1713635004       -0.2771241896        2.2331150538
 C          2.1882253600       -0.2160415844        1.2956947169
 C          2.0164033480       -0.8417039762        0.0689003949
 C          0.8508107102       -1.5479828670       -0.1976389326
 H          0.7261864929       -2.0182189852       -1.1601684037
 N          3.0355716558       -0.7687326098       -0.8974425194
 S          3.6918859453        0.7415280300       -1.2288829634
 O          2.7519686378        1.8077392460       -0.9686478249
 O          4.2022016356        0.6460510467       -2.5794480251
 C          5.0685645875        0.8519458642       -0.1025764427
 C          5.9946841268       -0.1728496723       -0.1040097779
 C          7.0746205723       -0.1002895207        0.7611527395
 C          7.2117607121        0.9908413185        1.6064010684
 C          6.2762698456        2.0139010210        1.5926151273
 C          5.1929305302        1.9467999287        0.7300789702
 H          4.4372681553        2.7152960043        0.6890143977
 H          6.3844297714        2.8621079483        2.2494143704
 H          8.0527760340        1.0445694533        2.2795137094
 H          7.8042673467       -0.8938297022        0.7743168993
 H          5.8527957230       -1.0010356981       -0.7778984124
 H          2.7993397008       -1.2423653108       -1.7581226644
 H          3.0983936271        0.3241064427        1.4990135418
 H          1.2937051974        0.2154949113        3.1857606678
 H         -0.8024773113       -0.9843816095        2.6785058187
 H         -1.9268074725       -2.6126482934        1.3826611750
 C         -1.3843393798       -3.4539289386       -0.5048101731
 C         -0.7698909887       -4.7269784469       -0.0068844094
 C         -2.2440863606       -4.6573196239       -0.2655376744
 H         -2.6444791624       -5.1809708995       -1.1207051134
 H         -2.9122215641       -4.6330407043        0.5827244006
 H         -0.1556040993       -5.3024880907       -0.6822681943
 H         -0.4358046225       -4.7480845351        1.0193043154
 H         -1.2074369992       -3.1731235534       -1.5358520366
