  62
        -98.94006653
 C          2.2552897806        0.9967012702        0.3906154791
 C          2.2944285603       -0.0995675099       -0.5065909308
 C          3.1900904602       -1.2045449900       -0.1266817008
 C          3.8530859205       -1.1508288499        1.0418751690
 C          4.8368695305       -2.1779096000        1.5205884190
 C          6.2642943404       -1.8296078502        1.0754575286
 C          6.3826376101       -1.4876165104       -0.4098462114
 H          5.8376153602       -0.5616474004       -0.6074433214
 H          7.4368498901       -1.2885203406       -0.6140295217
 C          5.8763010798       -2.5845581905       -1.3569067012
 H          6.6004596897       -2.7111436407       -2.1643762513
 H          5.8157013698       -3.5344343304       -0.8244781411
 C          4.5268741897       -2.2837075304       -2.0118648910
 H          4.3697997795       -3.0082210305       -2.8151960708
 H          4.5551997998       -1.2910253204       -2.4682897111
 C          3.3056483899       -2.3552000201       -1.0864049007
 H          2.4094709198       -2.3123210401       -1.7124579205
 H          3.3053740099       -3.3064255701       -0.5503530306
 H          6.6069939806       -0.9683088402        1.6538243985
 H          6.9139537003       -2.6750579703        1.3089533386
 H          4.8022385807       -2.2056349898        2.6111035190
 H          4.5522143603       -3.1542009100        1.1329379591
 O          3.7291704208       -0.1169058698        1.9141801489
 C          2.9349533009        0.9771180403        1.6106522890
 O          2.9044264411        1.8492001004        2.5029690289
 O          1.6250092501       -0.1653595100       -1.5684657706
 C          1.3940867907        2.2171734903        0.1150619391
 C          0.0174333706        1.7888415804       -0.3339548206
 C         -0.5862559396        2.2248701903       -1.5052276905
 C         -1.8593792597        1.7952520804       -1.8380696502
 C         -2.5543899297        0.9253054006       -1.0192412799
 C         -1.9624228095        0.4863084407        0.1581644000
 C         -0.6932657894        0.9286443806        0.4952996497
 H         -0.2322319892        0.5871941206        1.4154898896
 N         -2.6520944494       -0.4149665691        0.9889775402
 S         -4.2267007893       -0.0414018489        1.4344921505
 O         -4.4386508591        1.3870455811        1.4815391004
 O         -4.4510689791       -0.7644976687        2.6676155206
 C         -5.2219366697       -0.7652775889        0.1480217908
 C         -6.1255305597        0.0156009411       -0.5457284991
 C         -6.8951114400       -0.5718161689       -1.5379720689
 C         -6.7485975802       -1.9220750490       -1.8164779588
 C         -5.8386116101       -2.6930436490       -1.1082763488
 C         -5.0671387199       -2.1123655990       -0.1144513191
 H         -4.3505954298       -2.6760508490        0.4595700609
 H         -5.7271045203       -3.7427077290       -1.3277979387
 H         -7.3468365204       -2.3767940690       -2.5901917686
 H         -7.6030579200        0.0256113311       -2.0896234888
 H         -6.2002739295        1.0626293511       -0.2987095392
 H         -2.1183173393       -0.7173978491        1.7907765702
 H         -3.5414829798        0.5816503207       -1.2818072997
 H         -2.3138828699        2.1372919804       -2.7553585601
 H         -0.0537204597        2.8845438702       -2.1700071907
 H          1.2815307310        2.7109032704        1.0953400391
 C          2.0423694406        3.2382490001       -0.8087930811
 C          3.5332582306        3.3269206099       -0.9383204314
 C          2.7084650903        2.8466255398       -2.0923569712
 H          2.5976019103        3.4987187097       -2.9464492213
 H          2.7284112402        1.7981411198       -2.3425515511
 H          3.9847894507        4.3060152098       -0.9964781417
 H          4.1269841807        2.6058188599       -0.3948097115
 H          1.5074606908        4.1830657401       -0.8048962511
