  62
        -98.94053919
 C         -1.8119711125       -0.0364177800       -0.9676575303
 C         -3.1684935593       -0.2494676786       -1.3226470401
 C         -4.1715757711        0.3482629132       -0.4347113758
 C         -3.7746218039        1.0399661384        0.6486163861
 C         -4.6737772256        1.7359012363        1.6339929270
 C         -5.2278725366        0.8177831340        2.7319178537
 C         -6.3034459601       -0.1679960760        2.2738314000
 H         -6.7540633320       -0.5915743514        3.1736453769
 H         -7.0870866794        0.3719649123        1.7413195338
 C         -5.7791780274       -1.3147683148        1.3981746824
 H         -4.6945327133       -1.3888233746        1.5070286629
 H         -6.1996620273       -2.2608840992        1.7465957861
 C         -6.1210086989       -1.1867450618       -0.0864253515
 H         -5.6707985206       -2.0303550207       -0.6160677969
 H         -7.2035683197       -1.2459790152       -0.2192850296
 C         -5.6185059534        0.1064073178       -0.7416726771
 H         -5.7164226991        0.0015888268       -1.8250662673
 H         -6.2235193848        0.9524724042       -0.4159911238
 H         -5.6582830400        1.4579651703        3.5054916459
 H         -4.3970720419        0.2681087016        3.1806419741
 H         -4.0720622322        2.5141108896        2.1084717187
 H         -5.5002622032        2.2103578344        1.1039740549
 O         -2.4650528972        1.2037085818        0.9686805716
 C         -1.4516752988        0.6543066961        0.1903515981
 O         -0.3100974649        0.8578282356        0.6393691257
 H          2.0130574669       -0.4271864891       -1.8869452843
 C          1.6486923832       -1.1514216753       -1.1751468125
 C          0.2868119887       -1.3711914726       -1.0397748516
 C         -0.1405664608       -2.3077293382       -0.1012271395
 C          0.7640191907       -2.9804635273        0.6962629451
 C          2.1230542552       -2.7525422751        0.5626049332
 C          2.5617651544       -1.8355737669       -0.3806517980
 N          3.9491246775       -1.6201693568       -0.5312451798
 S          4.7703055562       -0.8556233942        0.7123511590
 O          6.1709367667       -0.9344489304        0.3626722478
 O          4.3876989193       -1.4565862957        1.9636241143
 C          4.2422477512        0.8474470133        0.6395889898
 C          2.9478574989        1.1615511963        1.0011588887
 C          2.5224177768        2.4754599128        0.8861927943
 C          3.3923300593        3.4477302249        0.4183548822
 C          4.6914299878        3.1161306674        0.0622469753
 C          5.1208862724        1.8033550402        0.1667376817
 H          6.1193030486        1.4986449894       -0.1029151610
 H          5.3663831159        3.8747994100       -0.3004240698
 H          3.0542234678        4.4683541842        0.3294630176
 H          1.5034635264        2.7106790909        1.1492644160
 H          2.2749985680        0.3964081861        1.3529605841
 H          4.1913766711       -1.1707505658       -1.4037954001
 H          2.8431359208       -3.2562662443        1.1861404803
 H          0.4109961066       -3.6927148250        1.4271489953
 H         -1.2015398841       -2.4909367227        0.0058542329
 C         -0.7493366225       -0.6469114062       -1.8631025834
 H         -1.2961249301       -1.4024872229       -2.4526097967
 C         -0.1483897097        0.3293705793       -2.8651112457
 C         -0.8542616391        1.5968980059       -3.2409588868
 C          0.4119504028        1.6543347976       -2.4429327244
 H          1.3074661720        2.0141147021       -2.9288658286
 H          0.3514027738        1.9067115046       -1.3962586208
 H         -0.8287765353        1.9078523459       -4.2746789631
 H         -1.7851237016        1.8220799676       -2.7410575648
 H          0.3678037880       -0.1828325537       -3.6716242676
 O         -3.5224989164       -0.9103330086       -2.3350995799
