  62
        -98.93964964
 C         -1.0562183931       -1.3066629242        0.4435933610
 C         -2.0137662493       -1.0740726157       -0.5686928567
 C         -3.1272728012       -0.1670930032       -0.2274472608
 C         -3.1626270876        0.3964507323        0.9933573699
 C         -4.1752205837        1.3580358765        1.5630774571
 C         -5.6550982708        1.0538549503        1.2838891263
 C         -6.3032002868        2.0326726331        0.3031811983
 H         -7.3811395659        2.0416034224        0.4793362887
 H         -5.9295817660        3.0363282732        0.5170654563
 C         -6.0794852461        1.7157301924       -1.1743704862
 H         -6.4657711819        2.5567235198       -1.7549831229
 H         -6.6650621530        0.8353521842       -1.4478740662
 C         -4.6240970957        1.4697514697       -1.5775354762
 H         -3.9622964494        2.1782056997       -1.0793036206
 H         -4.5379650156        1.6574726041       -2.6500814087
 C         -4.1476943889        0.0332485134       -1.3144646706
 H         -5.0069044806       -0.6142845290       -1.1171042408
 H         -3.6695579470       -0.3650110644       -2.2149911619
 H         -5.7619649731        0.0311852686        0.9259732114
 H         -6.1919509844        1.1229108522        2.2313854724
 H         -3.9926019193        1.3550001415        2.6403285116
 H         -3.9276980234        2.3633097647        1.2115270963
 O         -2.1935729030        0.1714568960        1.9270593956
 C         -1.1171992722       -0.6572496107        1.6747481615
 O         -0.2944503294       -0.7371236079        2.6107251216
 H          0.6997629965        0.3638989199       -0.1952050007
 C          1.2027612436       -0.2530150665       -0.9237461381
 C          0.9962417628       -1.6252968579       -0.9191678388
 C          1.6287282120       -2.3920847725       -1.8897139404
 C          2.4350184602       -1.7887818546       -2.8398737566
 C          2.6521932702       -0.4226564756       -2.8281793008
 C          2.0279259880        0.3517409980       -1.8571556441
 N          2.2218824167        1.7401582029       -1.7893661627
 S          2.3185847230        2.4702152924       -0.2864045724
 O          1.0073285385        2.5965908045        0.2999348052
 O          3.0136261297        3.7145944035       -0.5418256503
 C          3.3615573832        1.3865043535        0.6737377260
 C          4.6982090527        1.3345752914        0.3246308379
 C          5.5391597067        0.4686973960        1.0026536173
 C          5.0306318747       -0.3343304377        2.0128007692
 C          3.6898260171       -0.2661794025        2.3553176284
 C          2.8425842696        0.6014904816        1.6824317328
 H          1.7950265524        0.6620962968        1.9349948688
 H          3.2843530484       -0.8853615868        3.1398657907
 H          5.6817673744       -1.0147708881        2.5384614344
 H          6.5838050166        0.4191329334        0.7412525963
 H          5.0564966368        1.9832887150       -0.4580913307
 H          2.9078304700        2.1077192129       -2.4321785161
 H          3.2884484104        0.0431148234       -3.5647911355
 H          2.9113765655       -2.3940843295       -3.5958943059
 H          1.4846112652       -3.4598477260       -1.9067886397
 C          0.1341014230       -2.2080142851        0.1757019541
 H          0.7306930278       -2.2000154768        1.1009061512
 C         -0.3173407269       -3.6272931558       -0.0993004405
 C          0.5473253468       -4.7850758403        0.2972489941
 C         -0.7107741223       -4.4948840396        1.0573437131
 H         -1.5532676234       -5.1597697274        0.9404632318
 H         -0.6266080336       -4.0686265813        2.0467997928
 H          1.4889211619       -4.5656007695        0.7773819807
 H          0.5673972150       -5.6556602811       -0.3408290001
 H         -0.9025798714       -3.7083448504       -1.0076167404
 O         -1.9464065025       -1.5954224526       -1.7132563741
