  62
        -98.93243494
 C          2.3635972203        0.3183932906        0.6783883287
 C          3.1866926599        0.7054527801       -0.4067688717
 C          4.2310295498       -0.2590619000       -0.8051671417
 C          4.3220423501       -1.4427117497       -0.1776271811
 C          5.2759786900       -2.5789834998       -0.4494105709
 C          6.7475324099       -2.2219287598       -0.7040723416
 C          7.2577772001       -0.9849085295        0.0495413576
 H          6.5342841404       -0.6845853591        0.8094658177
 H          8.1842904403       -1.2422269092        0.5662938474
 C          7.5497049597        0.1994269101       -0.8752977131
 H          8.2322808699        0.8831617504       -0.3648423437
 H          8.0635646894       -0.1706729903       -1.7651225431
 C          6.3300893895        1.0141526299       -1.3046469130
 H          6.6577132692        1.7423477595       -2.0503716935
 H          5.9443999298        1.5803568902       -0.4525492632
 C          5.1632661794        0.2014562795       -1.8889759822
 H          4.5774132891        0.8673455092       -2.5281807523
 H          5.5231615692       -0.6297341907       -2.4901975720
 H          7.3374170500       -3.0932011797       -0.4144097814
 H          6.9073215195       -2.0767668903       -1.7715996118
 H          5.2024850004       -3.2259361294        0.4281268594
 H          4.8930497097       -3.1486575202       -1.3011687805
 O          3.4768742704       -1.7937004693        0.8342466193
 C          2.4966600106       -0.9311643491        1.2868538893
 O          1.8158586709       -1.3802177287        2.2328276897
 H         -1.0804203691        0.3476720612        2.2659569800
 C         -1.1445967695        0.5088530007        1.1981015599
 C         -0.0255416098        0.9502116204        0.5089287693
 C         -0.1113765603        1.1143146298       -0.8707119107
 C         -1.2987152305        0.8595749394       -1.5313198902
 C         -2.4183316203        0.4321171597       -0.8377256296
 C         -2.3361016198        0.2411497403        0.5344226805
 N         -3.4637336995       -0.1902466394        1.2493189411
 S         -4.4288592097       -1.4085944997        0.6183405920
 O         -5.0940590492       -1.9863884492        1.7654127225
 O         -3.6720117699       -2.3158955101       -0.2124211478
 C         -5.6269813001       -0.5282489402       -0.3627421680
 C         -5.8296162005       -0.8803429509       -1.6826934077
 C         -6.7724509908       -0.1857845212       -2.4247253577
 C         -7.4927852406        0.8423618390       -1.8364345779
 C         -7.2799145102        1.1814441596       -0.5084574882
 C         -6.3398708299        0.4903999600        0.2389715318
 H         -6.1474589695        0.7207472105        1.2734589716
 H         -7.8422026500        1.9814583498       -0.0544022383
 H         -8.2244981209        1.3822663887       -2.4164401379
 H         -6.9396135712       -0.4487746517       -3.4569074175
 H         -5.2427398706       -1.6833886310       -2.1001242476
 H         -3.2946800991       -0.3349099589        2.2341253311
 H         -3.3427854704        0.2275219094       -1.3520601991
 H         -1.3550329009        0.9946542289       -2.6008774402
 H          0.7634084195        1.4390585696       -1.4135144112
 C          1.2639289105        1.2010824708        1.2469872687
 H          1.1248973408        0.8476738313        2.2812888789
 C          1.6512986004        2.6719237009        1.3221555779
 C          0.9751775201        3.7560528905        0.5432490176
 C          0.7398528006        3.6405597812        2.0171007978
 H          1.1713240808        4.3790280615        2.6756873772
 H         -0.2209206492        3.2674701813        2.3397812583
 H          1.5923319099        4.5614206903        0.1754648370
 H          0.1709676199        3.4857429201       -0.1220112920
 H          2.7147348305        2.8007089010        1.4944947374
 O          3.0725198196        1.7906652298       -1.0293029122
