  62
        -98.94473434
 C          1.8293456892       -0.0820448110       -0.1456635341
 C          2.8496094338       -0.8483256489       -0.7582265042
 C          4.1854607023       -0.2385381170       -0.7808998282
 C          4.3566757017        0.9883401349       -0.2552359369
 C          5.6728942740        1.7034807283       -0.1621715501
 C          6.3765040659        1.3998398941        1.1680583640
 C          6.4448587892       -0.0897031772        1.5052187555
 H          6.9876088143       -0.1848053651        2.4482479478
 H          5.4327154001       -0.4624977341        1.6785455061
 C          7.1261171346       -0.9525892173        0.4338346346
 H          7.7198851007       -0.3209799182       -0.2279098039
 H          7.8141600759       -1.6430351539        0.9262247621
 C          6.1660432359       -1.8009156268       -0.4020925937
 H          6.7577194446       -2.5243312038       -0.9693256053
 H          5.5054885907       -2.3660068541        0.2603043153
 C          5.2983669000       -1.0317871766       -1.4062407928
 H          4.8138691646       -1.7657354033       -2.0568050592
 H          5.9306361980       -0.3900944976       -2.0231057685
 H          7.3863051886        1.8122204933        1.1264725721
 H          5.8348370740        1.9076086824        1.9695428947
 H          6.3043157052        1.4028165659       -0.9959855720
 H          5.4864286306        2.7767500231       -0.2274338556
 O          3.3466123759        1.7054551988        0.3005546870
 C          2.0610471018        1.1886683283        0.3806766727
 O          1.2372020326        1.9458190556        0.9277958200
 O          2.6506509725       -1.9849222664       -1.2651910493
 C          0.4293056316       -0.6640607877       -0.0583048756
 C         -0.5538115565        0.2500873323       -0.7439373109
 C         -0.2894180752        0.6451045778       -2.0540778511
 C         -1.1405948780        1.5034844542       -2.7200678300
 C         -2.2831801212        1.9778154494       -2.0989194193
 C         -2.5619090499        1.5828053409       -0.7969035641
 C         -1.7055711556        0.7148320568       -0.1298873228
 H         -1.9389842764        0.4401819885        0.8849248205
 N         -3.7088494155        2.0538179699       -0.1444566148
 S         -4.5470867635        1.0858375718        0.9205112283
 O         -5.8793859506        1.6521950314        0.9455746130
 O         -3.8736674261        1.0178652837        2.1928474148
 C         -4.5934812988       -0.5331630456        0.1694973455
 C         -4.2877804426       -1.6392442513        0.9345841062
 C         -4.3366366337       -2.8958656051        0.3521869573
 C         -4.6878519351       -3.0234268366       -0.9823118867
 C         -4.9983014735       -1.9028220917       -1.7376525950
 C         -4.9545348433       -0.6450036180       -1.1589134887
 H         -5.1981812420        0.2405685094       -1.7224868548
 H         -5.2732011548       -2.0056059610       -2.7750119746
 H         -4.7211041983       -4.0014979147       -1.4358227815
 H         -4.0982227919       -3.7674046924        0.9408101207
 H         -4.0137281556       -1.4934699578        1.9667211553
 H         -4.3197956847        2.6302359062       -0.7030580754
 H         -2.9455923702        2.6580275216       -2.6122624212
 H         -0.9161119195        1.8068114823       -3.7315138697
 H          0.6052482416        0.2769069217       -2.5374183976
 H          0.4713326777       -1.6081465085       -0.6217391007
 C          0.0841172818       -0.9736683585        1.3824564164
 C         -0.8695670996       -2.0813559712        1.7107415268
 C          0.5938319564       -2.2466292481        1.9870731193
 H          0.9327645489       -2.2319467744        3.0121983326
 H          1.1653913611       -2.9031509989        1.3473039967
 H         -1.5356107894       -1.9486306089        2.5498179032
 H         -1.2976218620       -2.6319407451        0.8869771414
 H          0.0774416466       -0.0896864554        2.0112831232
