  62
        -98.94366116
 C         -1.7963618968       -0.3710133910       -0.2952770789
 C         -2.9687967243       -0.7237419750       -1.0042494571
 C         -4.2245266047       -0.6491812505       -0.2459037764
 C         -4.1894780990       -0.2829193799        1.0486825004
 C         -5.3972149899       -0.1183287213        1.9243682934
 C         -5.9266685767        1.3218450306        1.8770624212
 C         -6.0979550065        1.8709105556        0.4607319142
 H         -6.5036538982        2.8809461750        0.5502928569
 H         -5.1155247043        1.9595190593       -0.0084615578
 C         -7.0141849931        1.0303904329       -0.4395000127
 H         -7.6903907959        1.7004936494       -0.9745849745
 H         -7.6301338084        0.3697543930        0.1717361287
 C         -6.2793928888        0.2032063850       -1.4959872791
 H         -7.0189094174       -0.1747593970       -2.2070690192
 H         -5.5910621774        0.8455780545       -2.0510350340
 C         -5.4930264887       -1.0040518045       -0.9696082129
 H         -6.1394644622       -1.6173138040       -0.3383578711
 H         -5.1875470451       -1.6029956963       -1.8327391005
 H         -6.8840807124        1.3546904623        2.4002533008
 H         -5.2247179392        1.9661401033        2.4112492378
 H         -5.1127816552       -0.3579255429        2.9503195774
 H         -6.1712627436       -0.8116880629        1.6011141012
 O         -3.0406766159        0.0270652498        1.7017502436
 C         -1.8164223556       -0.0004823308        1.0494899918
 O         -0.8462639686        0.3163342297        1.7621025313
 O         -2.9641201596       -1.0895112507       -2.2111607112
 C         -0.4616138028       -0.4106095816       -1.0158737651
 C          0.4823971853       -1.3640869208       -0.3265005039
 C          0.0205215636       -2.6263144339        0.0393629771
 C          0.8519350458       -3.5254286873        0.6768937448
 C          2.1669328151       -3.1920271241        0.9513657666
 C          2.6423710412       -1.9410345307        0.5801349442
 C          1.8010726549       -1.0365911706       -0.0548233043
 H          2.1896671249       -0.0731151964       -0.3376241334
 N          3.9620614870       -1.5658842958        0.8637583910
 S          4.8283525137       -0.6066861362       -0.1931980878
 O          4.5108105024       -0.9050576881       -1.5702358201
 O          6.2101553712       -0.8026145031        0.1919040132
 C          4.3526323884        1.0634697545        0.1993154009
 C          4.2764787575        1.9897024681       -0.8221052208
 C          3.9427050090        3.2999412679       -0.5170733044
 C          3.6930574063        3.6593247145        0.7982320308
 C          3.7779790390        2.7180396928        1.8127724632
 C          4.1146854997        1.4072854611        1.5150206637
 H          4.1825306496        0.6514974569        2.2794533100
 H          3.5792794552        3.0001290094        2.8342488705
 H          3.4287723799        4.6782615962        1.0336494531
 H          3.8762091981        4.0336965233       -1.3048391120
 H          4.4678601873        1.6633487134       -1.8321993772
 H          4.5339126996       -2.2797830768        1.2899848761
 H          2.8178414012       -3.8929432995        1.4515190266
 H          0.4763583018       -4.4974618854        0.9597262012
 H         -1.0055049951       -2.8904856685       -0.1784684995
 H         -0.6802785269       -0.8143962774       -2.0162550026
 C          0.0923526551        0.9906859286       -1.1679023367
 C          0.9775805809        1.3351431710       -2.3268579230
 C         -0.4263532707        1.8560573857       -2.2757058042
 H         -0.5802191265        2.9066881442       -2.0811857430
 H         -1.1590963737        1.4225858888       -2.9408237899
 H          1.7874868392        2.0296791398       -2.1635710266
 H          1.2079547215        0.5505268702       -3.0319348372
 H          0.2919806975        1.4645641040       -0.2129589937
