  62
        -98.94069994
 C         -2.5992601258       -0.6322486188       -0.4627029595
 C         -3.1332990098        0.2011339744        0.5557622459
 C         -3.1612287912        1.6417909970        0.2816403844
 C         -2.7104518861        2.0908657685       -0.9032202496
 C         -2.6362542213        3.5347145342       -1.3050023236
 C         -1.2674050913        4.1374564455       -0.9608367248
 C         -0.8095828003        3.8639701311        0.4722364024
 H         -0.6022188960        2.7960974517        0.5850304168
 H          0.1438537339        4.3792988766        0.6104400462
 C         -1.7974389396        4.3188539235        1.5558727136
 H         -1.2361589321        4.8195063690        2.3475965540
 H         -2.4929314205        5.0484399592        1.1389605409
 C         -2.5855544777        3.1877000432        2.2195350604
 H         -3.0643261570        3.5886552183        3.1170045076
 H         -1.8947328556        2.4024627426        2.5394767367
 C         -3.6835326305        2.5452185765        1.3621390482
 H         -4.2899409451        1.9119339024        2.0161401556
 H         -4.3252060312        3.3220270899        0.9417424340
 H         -1.3125149136        5.2149443450       -1.1309040763
 H         -0.5208721512        3.7144771183       -1.6370779271
 H         -3.4261197898        4.0873119045       -0.8000048904
 H         -2.7902385825        3.5997747378       -2.3835408851
 O         -2.2278680890        1.2662232419       -1.8638314035
 C         -2.1118098161       -0.1007965545       -1.6564933166
 O         -1.5710764558       -0.6963925185       -2.6117507392
 O         -3.5711759902       -0.2489458288        1.6488977874
 C         -2.5034225008       -2.1128942964       -0.1292315705
 C         -1.1627545279       -2.3889887133        0.5104268607
 C         -1.0610078124       -2.9827275707        1.7623952748
 C          0.1728963979       -3.1467834956        2.3690014908
 C          1.3276137719       -2.7055669246        1.7474351777
 C          1.2337659996       -2.1205828220        0.4932273166
 C          0.0022836274       -1.9832481811       -0.1246871573
 H         -0.0558093527       -1.5164552984       -1.0976898379
 N          2.4074902212       -1.5914552236       -0.1154360189
 S          2.6909111745       -0.0189401683        0.4606507204
 O          2.6995719428       -0.0671574185        1.9006800919
 O          1.7599038043        0.9099586308       -0.1455184172
 C          4.3404763870        0.2814848914       -0.1438809692
 C          4.5229426107        1.0335835108       -1.2876854877
 C          5.8104938846        1.2287066123       -1.7630531358
 C          6.8860829794        0.6671069087       -1.0921560640
 C          6.6861641466       -0.0870255207        0.0547780446
 C          5.4019385017       -0.2842928524        0.5357435879
 H          5.1974537214       -0.8545141246        1.4264312786
 H          7.5253884048       -0.5205391926        0.5742631992
 H          7.8865146036        0.8201222786       -1.4649866740
 H          5.9679336756        1.8164819719       -2.6531192715
 H          3.6572637826        1.4564348317       -1.7726248173
 H          2.2770057476       -1.5088010393       -1.1173084611
 H          2.2900639677       -2.7847567183        2.2249003989
 H          0.2329663883       -3.6033736891        3.3451828100
 H         -1.9610411066       -3.2891451999        2.2750162653
 H         -3.2771410394       -2.2918165999        0.6299625023
 C         -2.7538935998       -3.0424215354       -1.2985645396
 C         -3.2103422007       -4.4434436450       -1.0267233772
 C         -4.1585392421       -3.4486692467       -1.6242990209
 H         -4.4346768472       -3.5521862677       -2.6626537557
 H         -4.9483077666       -3.0570947545       -0.9998328577
 H         -2.8339859145       -5.2363696172       -1.6542793397
 H         -3.3607803858       -4.7303544230        0.0028509366
 H         -2.0780314804       -2.8830031516       -2.1282338501
