  62
        -98.93570853
 C         -2.4880639634       -0.9866106404        0.5981596137
 C         -2.6639532468        0.3078493250        1.1516290947
 C         -3.9848170117        0.9245599494        0.9755327594
 C         -4.9467737848        0.2372652704        0.3336410665
 C         -6.3249516159        0.7546269197        0.0414259584
 C         -6.3790742241        1.4474074016       -1.3272345129
 C         -5.2626690196        2.4685756317       -1.5457197562
 H         -4.3029212382        1.9474088741       -1.5784651720
 H         -5.4187002530        2.9162747403       -2.5295589352
 C         -5.1996173068        3.5760152807       -0.4845218285
 H         -5.0653417422        4.5359646366       -0.9874510962
 H         -6.1442738655        3.6237815615        0.0582675877
 C         -4.0495712172        3.4332616941        0.5145754676
 H         -3.9656487740        4.3695392850        1.0729983249
 H         -3.1091438008        3.2898309438       -0.0243087449
 C         -4.1922172234        2.3015640430        1.5403373364
 H         -5.1632223785        2.3731459949        2.0349788822
 H         -3.4109671822        2.4360741937        2.2944658978
 H         -7.3486994723        1.9383714825       -1.4275944740
 H         -6.3015333255        0.6840526269       -2.1046983733
 H         -7.0153582436       -0.0904263564        0.0389662585
 H         -6.6190239040        1.4500030300        0.8251331754
 O         -4.7509312403       -1.0059406712       -0.1684887331
 C         -3.5197589229       -1.6470501072       -0.0719602465
 O         -3.5024521947       -2.7669730102       -0.6118566114
 O         -1.7529739724        0.9173634536        1.7773234470
 C         -1.1211614349       -1.6205248098        0.7785658863
 C         -0.2012900012       -1.3033582618       -0.3738599398
 C         -0.6288416363       -1.4057361133       -1.6936367198
 C          0.2374377859       -1.1184849274       -2.7327182518
 C          1.5408902824       -0.7315508061       -2.4779534348
 C          1.9832465598       -0.6376736424       -1.1625953131
 C          1.1073672089       -0.9160949711       -0.1220791473
 H          1.4518553134       -0.8124695086        0.8956867132
 N          3.3212017050       -0.3089369692       -0.8917144990
 S          3.7430407929        0.5002177101        0.5265407075
 O          3.6370271154       -0.4168844398        1.6330008531
 O          3.0049001310        1.7383084998        0.6385461245
 C          5.4616740260        0.8280500216        0.1855144989
 C          6.3622803081       -0.2146304472        0.2980018999
 C          7.6977549686        0.0202142811        0.0131244085
 C          8.1087106943        1.2865569056       -0.3766120670
 C          7.1940186348        2.3233483490       -0.4823880949
 C          5.8560182297        2.0947983080       -0.2004828007
 H          5.1106141589        2.8714753360       -0.2617439902
 H          7.5170338123        3.3073245750       -0.7820292170
 H          9.1490810685        1.4671445858       -0.5963547421
 H          8.4122805110       -0.7826469901        0.0970151509
 H          5.9985436955       -1.1785167689        0.6134897759
 H          3.7957151236        0.0874916000       -1.6916856719
 H          2.2139385216       -0.5086946022       -3.2917066995
 H         -0.1072228525       -1.1962075169       -3.7529730969
 H         -1.6421015798       -1.7196851142       -1.8947109413
 H         -0.6989785163       -1.1294270967        1.6712293907
 C         -1.1842167020       -3.1137998882        1.0725273745
 C         -0.7418854800       -4.1634266842        0.1023174670
 C          0.0783188613       -3.8842302179        1.3235907919
 H          0.0875414275       -4.6117789618        2.1210815257
 H          1.0141914891       -3.3608498034        1.1932246106
 H         -1.3178692348       -5.0747025729        0.0565928815
 H         -0.3607632921       -3.8423999689       -0.8541219956
 H         -2.0378075389       -3.3647449777        1.6942572015
