  62
        -98.93685275
 C          2.6065519024        1.2583511726        0.2047504242
 C          2.6545706871        0.2323973430       -0.7653694202
 C          3.8417797986       -0.6467755406       -0.7433383672
 C          4.7981156485       -0.4228192719        0.1770553800
 C          6.0589244127       -1.2091327714        0.4185709522
 C          5.7957839748       -2.5360910289        1.1499370946
 C          4.5885678440       -3.3221512315        0.6445611337
 H          3.6968453072       -2.6964467925        0.7159312682
 H          4.4416546718       -4.1723007338        1.3159827791
 C          4.7146844233       -3.8663455908       -0.7763483972
 H          3.8225869647       -4.4658848876       -0.9745282772
 H          5.5799808159       -4.5309461092       -0.8295327105
 C          4.8390026461       -2.8192333374       -1.8846957321
 H          4.6846379690       -3.3342745887       -2.8374774428
 H          5.8422434367       -2.4031014865       -1.9188615094
 C          3.8041102020       -1.6998625698       -1.8245521196
 H          2.8014373902       -2.1398413120       -1.7778493931
 H          3.8325155313       -1.1493011069       -2.7728355732
 H          5.6264108690       -2.3105940971        2.2056784132
 H          6.6922651227       -3.1540099189        1.0769790708
 H          6.5785878152       -1.3786171038       -0.5197066667
 H          6.7009991113       -0.5877540888        1.0467483862
 O          4.7085068445        0.5852942629        1.0922811059
 C          3.6259256269        1.4397032045        1.1380008336
 O          3.6822236944        2.3033121510        2.0375285526
 H         -0.9342877858        2.0643702131       -1.1946044088
 C         -0.9462749322        1.4419883452       -0.3135694385
 C          0.1591179408        1.3998523022        0.5195332345
 C          0.1071750987        0.5903681749        1.6520385014
 C         -1.0148163622       -0.1648487417        1.9306490712
 C         -2.1103850821       -0.1347516832        1.0845278099
 C         -2.0736454276        0.6746427204       -0.0414876958
 N         -3.1712115705        0.6983814159       -0.9144943757
 S         -4.7239756612        0.7959805135       -0.2958003184
 O         -5.5230695279        1.3373431472       -1.3733364635
 O         -4.7535853663        1.5243771749        0.9513751864
 C         -5.1918581390       -0.9007075942       -0.0245473383
 C         -5.7176678017       -1.2811311787        1.1945793018
 C         -6.0906651052       -2.6032085434        1.3808824004
 C         -5.9331276646       -3.5163803926        0.3497202962
 C         -5.4062022322       -3.1176741498       -0.8697737237
 C         -5.0330623427       -1.7972705864       -1.0630279058
 H         -4.6210312330       -1.4492010326       -1.9955228648
 H         -5.2843302221       -3.8307816029       -1.6691983724
 H         -6.2221938609       -4.5449900916        0.4971592389
 H         -6.5008235370       -2.9150119997        2.3280127123
 H         -5.8154072132       -0.5384872716        1.9704780592
 H         -3.0501459290        1.2959361756       -1.7187094632
 H         -2.9867878328       -0.7260808469        1.2933158433
 H         -1.0376455584       -0.7879299961        2.8119904726
 H          0.9655121420        0.5630195430        2.3102648648
 C          1.4149166151        2.1975652235        0.2636664766
 H          1.5853162715        2.8476321583        1.1341327241
 C          1.3593942093        3.0574336721       -0.9811022976
 C          0.6703787015        4.3876367209       -0.9440676744
 C          2.1652626714        4.3192446388       -1.0256746343
 H          2.6448216691        4.5925339110       -1.9536092339
 H          2.7400771983        4.5725017541       -0.1466777302
 H          0.2266002716        4.6944514007       -0.0087858698
 H          0.1249109679        4.7133401854       -1.8172526440
 H          1.2992839593        2.4725833167       -1.8917326543
 O          1.7472607632        0.0449115404       -1.6181656971
