  62
        -98.93589444
 C          2.3723440062        0.7337195084        0.2295191406
 C          2.4750842725       -0.6809890505        0.2675264287
 C          3.6856182775       -1.2680638581       -0.3205266276
 C          4.6085020755       -0.4547756116       -0.8652196640
 C          5.9131272468       -0.9069157307       -1.4533458894
 C          7.0269538833       -0.9118883722       -0.3970884828
 C          6.6436594479       -1.6226489125        0.9008486552
 H          7.5148082314       -1.5915933251        1.5587656559
 H          5.8479484540       -1.0597160226        1.3942282234
 C          6.1928649049       -3.0785998617        0.7180808437
 H          6.6763712285       -3.6934507673        1.4800692415
 H          6.5206996824       -3.4492877202       -0.2536922607
 C          4.6854838324       -3.2983554791        0.8607401978
 H          4.3344544567       -2.8458274945        1.7917809969
 H          4.5031239460       -4.3740176587        0.9320782045
 C          3.8206389499       -2.7645058540       -0.2883664938
 H          4.2038134379       -3.1367274562       -1.2408926346
 H          2.8069932155       -3.1529781738       -0.1506223367
 H          7.9090991158       -1.3885531876       -0.8281426633
 H          7.2814960100        0.1231058438       -0.1579791447
 H          5.7894157690       -1.9039655950       -1.8714747170
 H          6.1864156248       -0.2173535600       -2.2536633608
 O          4.4726062468        0.8930745801       -0.8979641487
 C          3.3599315965        1.5280860073       -0.3556281863
 O          3.3932242686        2.7661202593       -0.4682730485
 O          1.5918096951       -1.4210224485        0.7820452287
 C          1.1260964977        1.3392694710        0.8497471464
 C          0.0353445247        1.5130274882       -0.1769007216
 C          0.2771596915        2.1535578901       -1.3886251229
 C         -0.7386164288        2.3026022571       -2.3147728957
 C         -2.0071073959        1.8147911888       -2.0549931583
 C         -2.2613123147        1.1779636396       -0.8455663391
 C         -1.2396184948        1.0318603621        0.0832566214
 H         -1.4430624523        0.5159102625        1.0095185687
 N         -3.5547880959        0.7186951350       -0.5436774768
 S         -3.7424981821       -0.7054735675        0.3451670863
 O         -3.4745383925       -0.4237780607        1.7327008584
 O         -2.9810546840       -1.7748905317       -0.2599587756
 C         -5.4894141041       -0.9815043932        0.1180011922
 C         -6.3782454317       -0.2329418891        0.8665496775
 C         -7.7378565785       -0.4213847934        0.6769168865
 C         -8.1839027268       -1.3496919694       -0.2523406018
 C         -7.2801460028       -2.0952207422       -0.9941705464
 C         -5.9185930368       -1.9105190682       -0.8106082486
 H         -5.1789177571       -2.4724189039       -1.3581867927
 H         -7.6297206898       -2.8186978375       -1.7129706073
 H         -9.2427019186       -1.4952825697       -0.3971818032
 H         -8.4436667850        0.1542022478        1.2537036696
 H         -5.9852242538        0.4691187907        1.5831302335
 H         -4.1616846638        0.7185647713       -1.3528831350
 H         -2.7964859851        1.9286289830       -2.7824446998
 H         -0.5387011864        2.7999723617       -3.2520112310
 H          1.2662833326        2.5351992897       -1.5920010210
 H          0.7739485184        0.5800814296        1.5676965499
 C          1.4001174979        2.6126330660        1.6390384332
 C          0.9262788774        3.9678639373        1.2175230768
 C          0.2818672942        3.2822241658        2.3822079953
 H          0.4719292411        3.6551763566        3.3772336391
 H         -0.7119039703        2.8824031081        2.2421824588
 H          1.5830450603        4.8039207315        1.4023052043
 H          0.3659509281        4.0501719813        0.3000296044
 H          2.3628732886        2.5767885353        2.1390381917
