  62
        -98.93871908
 C          1.2618633747        1.4446139474       -0.2813419694
 C          2.4739602217        1.4361795036        0.4553252007
 C          3.5507656922        0.5789899727       -0.0536213999
 C          3.3527551075       -0.1349609093       -1.1760368978
 C          4.3552953583       -1.0175326913       -1.8719743480
 C          4.8106685260       -2.2710104808       -1.1003984612
 C          6.0952051288       -2.0795914245       -0.2842186988
 H          6.7060606119       -2.9798754121       -0.3769132951
 H          6.6707755181       -1.2635926741       -0.7229801236
 C          5.9036773268       -1.8225495742        1.2134852139
 H          5.6726891533       -2.7675595377        1.7105082833
 H          6.8535335416       -1.4629579977        1.6150939692
 C          4.8017716333       -0.8300402281        1.5851029036
 H          4.9010494022       -0.5913584406        2.6459698249
 H          3.8243363931       -1.3054263410        1.4674048406
 C          4.8055936292        0.4734369258        0.7629884238
 H          4.8152472602        1.3359358603        1.4324516545
 H          5.6856282448        0.5229574816        0.1234009529
 H          4.9923861776       -3.0497524940       -1.8431267528
 H          3.9978818838       -2.6197884045       -0.4629207661
 H          5.2291043800       -0.4162225308       -2.1339971449
 H          3.8722878888       -1.3284965784       -2.8007137980
 O          2.1801350938       -0.0951543054       -1.8614335938
 C          1.1009041854        0.6632137565       -1.4266319808
 O          0.0970779701        0.5538930492       -2.1569830593
 O          2.6516700342        2.1339580979        1.4908212377
 C          0.1508080597        2.3187771914        0.2666478167
 C         -0.7596959766        1.5734264727        1.2177181211
 C         -1.3737354191        2.2485824193        2.2680193741
 C         -2.2249981296        1.5842182586        3.1309121418
 C         -2.4891394912        0.2370205507        2.9596813669
 C         -1.8773831620       -0.4492896621        1.9173484030
 C         -1.0188584883        0.2217290353        1.0565095479
 H         -0.5401596751       -0.3306526494        0.2638443129
 N         -2.1061967262       -1.8209485680        1.7343283163
 S         -2.2633883255       -2.4548792805        0.1921749535
 O         -2.9010750804       -3.7373361865        0.4088040737
 O         -0.9818716295       -2.4945750733       -0.4643097830
 C         -3.4061678447       -1.3543017019       -0.6212132078
 C         -2.9654752769       -0.3968873898       -1.5107282304
 C         -3.8940133345        0.4772453658       -2.0576954995
 C         -5.2317237733        0.3817262177       -1.7103799696
 C         -5.6581834009       -0.5924898211       -0.8198081307
 C         -4.7380299662       -1.4665350450       -0.2670166839
 H         -5.0280120947       -2.2461373215        0.4187089116
 H         -6.7002463929       -0.6703526910       -0.5548474058
 H         -5.9450863723        1.0681219628       -2.1386457747
 H         -3.5570547048        1.2299446070       -2.7529891820
 H         -1.9193017176       -0.3365908989       -1.7687079468
 H         -2.7872268681       -2.2203612733        2.3637025598
 H         -3.1514973027       -0.2851529648        3.6328063865
 H         -2.6899056069        2.1189338782        3.9447835329
 H         -1.1677939283        3.2976183442        2.4144699777
 H          0.6605795404        3.1004367390        0.8482217463
 C         -0.6876557888        2.9893593230       -0.8057553242
 C         -1.2872968953        4.3389154680       -0.5546639197
 C         -0.1499874395        4.1919770848       -1.5194635658
 H         -0.3431020967        4.2902143134       -2.5768817170
 H          0.8229810470        4.5543011459       -1.2203127751
 H         -2.2716214847        4.5427992731       -0.9463982161
 H         -1.0818068260        4.8174538410        0.3903243660
 H         -1.2634222595        2.2854704466       -1.3920011464
